[pipeline] started: 2026-02-10T21:33:26+01:00
[pipeline] OUT_BASE=/home/xfalc/arq/TP4_EX4/m5out/q4/A7_nolimit_20260210
[pipeline] running sweep (MAXINSTS=0)...
[Q4][A7] gem5: /opt/gem5/build/RISCV/gem5.opt
[Q4][A7] cfg : /home/xfalc/arq/TP4_EX4/gem5/se_A7_q4.py
[Q4][A7] out : /home/xfalc/arq/TP4_EX4/m5out/q4/A7_nolimit_20260210
[Q4][A7] maxinsts: 0
[Q4][A7] progress: 10
[Q4][A7] skip_done: 0
[Q4][A7] sizes: 1kB 2kB 4kB 8kB 16kB
[Q4][A7] calibrate: 0
\n=== L1=1kB ===
[run ] 21:33:26 outdir=/home/xfalc/arq/TP4_EX4/m5out/q4/A7_nolimit_20260210/L1_1kB/dijkstra
Global frequency set at 1000000000000 ticks per second
src/mem/dram_interface.cc:690: warn: DRAM device capacity (8192 Mbytes) does not match the address range assigned (2048 Mbytes)
src/base/statistics.hh:279: warn: One of the stats is a legacy stat. Legacy stat is a stat that does not belong to any statistics::Group. Legacy stat is deprecated.
system.remote_gdb: Listening for connections on port 7000
Redirecting stdout and stderr to /home/xfalc/arq/TP4_EX4/m5out/q4/A7_nolimit_20260210/L1_1kB/dijkstra/simout
gem5 Simulator System.  https://www.gem5.org
gem5 is copyrighted software; use the --copyright option for details.

gem5 version 23.0.0.1
gem5 compiled Jan 26 2026 00:01:36
gem5 started Feb 10 2026 21:33:27
gem5 executing on notebook, pid 97900
command line: /opt/gem5/build/RISCV/gem5.opt -r -d /home/xfalc/arq/TP4_EX4/m5out/q4/A7_nolimit_20260210/L1_1kB/dijkstra /home/xfalc/arq/TP4_EX4/gem5/se_A7_q4.py --l1 1kB --maxinsts 0 --progress 10 --cmd /home/xfalc/arq/TP4_EX4/bench/bin/dijkstra_small --options /home/xfalc/arq/TP4_EX4/bench/mibench/network/dijkstra/input.dat

src/sim/simulate.cc:194: info: Entering event queue @ 0.  Starting simulation...
src/sim/syscall_emul.cc:85: warn: ignoring syscall set_robust_list(...)
      (further warnings will be suppressed)
src/sim/syscall_emul.hh:1014: warn: readlink() called on '/proc/self/exe' may yield unexpected results in various settings.
      Returning '/home/xfalc/arq/TP4_EX4/bench/bin/dijkstra_small'
src/sim/mem_state.cc:443: info: Increasing stack size by one page.
src/sim/syscall_emul.cc:74: warn: ignoring syscall mprotect(...)
100000000000: Event_61: system.cpu progress event, total committed:22415981, progress insts committed: 22415981, IPC: 00.22416
Exiting @ tick 165569688000 because exiting with last active thread context
[done] 21:37:13 rc=0 elapsed=227s outdir=/home/xfalc/arq/TP4_EX4/m5out/q4/A7_nolimit_20260210/L1_1kB/dijkstra
[run ] 21:37:13 outdir=/home/xfalc/arq/TP4_EX4/m5out/q4/A7_nolimit_20260210/L1_1kB/blowfish_enc
Global frequency set at 1000000000000 ticks per second
src/mem/dram_interface.cc:690: warn: DRAM device capacity (8192 Mbytes) does not match the address range assigned (2048 Mbytes)
src/base/statistics.hh:279: warn: One of the stats is a legacy stat. Legacy stat is a stat that does not belong to any statistics::Group. Legacy stat is deprecated.
system.remote_gdb: Listening for connections on port 7000
Redirecting stdout and stderr to /home/xfalc/arq/TP4_EX4/m5out/q4/A7_nolimit_20260210/L1_1kB/blowfish_enc/simout
gem5 Simulator System.  https://www.gem5.org
gem5 is copyrighted software; use the --copyright option for details.

gem5 version 23.0.0.1
gem5 compiled Jan 26 2026 00:01:36
gem5 started Feb 10 2026 21:37:13
gem5 executing on notebook, pid 98638
command line: /opt/gem5/build/RISCV/gem5.opt -r -d /home/xfalc/arq/TP4_EX4/m5out/q4/A7_nolimit_20260210/L1_1kB/blowfish_enc /home/xfalc/arq/TP4_EX4/gem5/se_A7_q4.py --l1 1kB --maxinsts 0 --progress 10 --cmd /home/xfalc/arq/TP4_EX4/bench/bin/bf --options e /home/xfalc/arq/TP4_EX4/bench/mibench/security/blowfish/input_small.asc /home/xfalc/arq/TP4_EX4/m5out/q4/A7_nolimit_20260210/L1_1kB/blowfish_enc/output_small.enc 1234567890abcdeffedcba0987654321

src/sim/simulate.cc:194: info: Entering event queue @ 0.  Starting simulation...
src/sim/syscall_emul.cc:85: warn: ignoring syscall set_robust_list(...)
      (further warnings will be suppressed)
src/sim/syscall_emul.hh:1014: warn: readlink() called on '/proc/self/exe' may yield unexpected results in various settings.
      Returning '/home/xfalc/arq/TP4_EX4/bench/bin/bf'
src/sim/mem_state.cc:443: info: Increasing stack size by one page.
src/sim/syscall_emul.cc:74: warn: ignoring syscall mprotect(...)
src/sim/mem_state.cc:443: info: Increasing stack size by one page.
100000000000: Event_61: system.cpu progress event, total committed:25177045, progress insts committed: 25177045, IPC: 00.25177
200000000000: Event_61: system.cpu progress event, total committed:50436710, progress insts committed: 25259665, IPC: 0.252597
Exiting @ tick 204423689000 because exiting with last active thread context
[done] 21:41:56 rc=0 elapsed=283s outdir=/home/xfalc/arq/TP4_EX4/m5out/q4/A7_nolimit_20260210/L1_1kB/blowfish_enc
[run ] 21:41:56 outdir=/home/xfalc/arq/TP4_EX4/m5out/q4/A7_nolimit_20260210/L1_1kB/blowfish_dec
Global frequency set at 1000000000000 ticks per second
src/mem/dram_interface.cc:690: warn: DRAM device capacity (8192 Mbytes) does not match the address range assigned (2048 Mbytes)
src/base/statistics.hh:279: warn: One of the stats is a legacy stat. Legacy stat is a stat that does not belong to any statistics::Group. Legacy stat is deprecated.
system.remote_gdb: Listening for connections on port 7000
Redirecting stdout and stderr to /home/xfalc/arq/TP4_EX4/m5out/q4/A7_nolimit_20260210/L1_1kB/blowfish_dec/simout
gem5 Simulator System.  https://www.gem5.org
gem5 is copyrighted software; use the --copyright option for details.

gem5 version 23.0.0.1
gem5 compiled Jan 26 2026 00:01:36
gem5 started Feb 10 2026 21:41:56
gem5 executing on notebook, pid 99256
command line: /opt/gem5/build/RISCV/gem5.opt -r -d /home/xfalc/arq/TP4_EX4/m5out/q4/A7_nolimit_20260210/L1_1kB/blowfish_dec /home/xfalc/arq/TP4_EX4/gem5/se_A7_q4.py --l1 1kB --maxinsts 0 --progress 10 --cmd /home/xfalc/arq/TP4_EX4/bench/bin/bf --options d /home/xfalc/arq/TP4_EX4/m5out/q4/A7_nolimit_20260210/L1_1kB/blowfish_enc/output_small.enc /home/xfalc/arq/TP4_EX4/m5out/q4/A7_nolimit_20260210/L1_1kB/blowfish_dec/output_small.asc 1234567890abcdeffedcba0987654321

src/sim/simulate.cc:194: info: Entering event queue @ 0.  Starting simulation...
src/sim/syscall_emul.cc:85: warn: ignoring syscall set_robust_list(...)
      (further warnings will be suppressed)
src/sim/syscall_emul.hh:1014: warn: readlink() called on '/proc/self/exe' may yield unexpected results in various settings.
      Returning '/home/xfalc/arq/TP4_EX4/bench/bin/bf'
src/sim/mem_state.cc:443: info: Increasing stack size by one page.
src/sim/syscall_emul.cc:74: warn: ignoring syscall mprotect(...)
src/sim/mem_state.cc:443: info: Increasing stack size by one page.
100000000000: Event_61: system.cpu progress event, total committed:25193550, progress insts committed: 25193550, IPC: 0.251935
200000000000: Event_61: system.cpu progress event, total committed:50472539, progress insts committed: 25278989, IPC: 00.25279
Exiting @ tick 204281591000 because exiting with last active thread context
[done] 21:46:40 rc=0 elapsed=284s outdir=/home/xfalc/arq/TP4_EX4/m5out/q4/A7_nolimit_20260210/L1_1kB/blowfish_dec
\n=== L1=2kB ===
[run ] 21:46:40 outdir=/home/xfalc/arq/TP4_EX4/m5out/q4/A7_nolimit_20260210/L1_2kB/dijkstra
Global frequency set at 1000000000000 ticks per second
src/mem/dram_interface.cc:690: warn: DRAM device capacity (8192 Mbytes) does not match the address range assigned (2048 Mbytes)
src/base/statistics.hh:279: warn: One of the stats is a legacy stat. Legacy stat is a stat that does not belong to any statistics::Group. Legacy stat is deprecated.
system.remote_gdb: Listening for connections on port 7000
Redirecting stdout and stderr to /home/xfalc/arq/TP4_EX4/m5out/q4/A7_nolimit_20260210/L1_2kB/dijkstra/simout
gem5 Simulator System.  https://www.gem5.org
gem5 is copyrighted software; use the --copyright option for details.

gem5 version 23.0.0.1
gem5 compiled Jan 26 2026 00:01:36
gem5 started Feb 10 2026 21:46:40
gem5 executing on notebook, pid 99903
command line: /opt/gem5/build/RISCV/gem5.opt -r -d /home/xfalc/arq/TP4_EX4/m5out/q4/A7_nolimit_20260210/L1_2kB/dijkstra /home/xfalc/arq/TP4_EX4/gem5/se_A7_q4.py --l1 2kB --maxinsts 0 --progress 10 --cmd /home/xfalc/arq/TP4_EX4/bench/bin/dijkstra_small --options /home/xfalc/arq/TP4_EX4/bench/mibench/network/dijkstra/input.dat

src/sim/simulate.cc:194: info: Entering event queue @ 0.  Starting simulation...
src/sim/syscall_emul.cc:85: warn: ignoring syscall set_robust_list(...)
      (further warnings will be suppressed)
src/sim/syscall_emul.hh:1014: warn: readlink() called on '/proc/self/exe' may yield unexpected results in various settings.
      Returning '/home/xfalc/arq/TP4_EX4/bench/bin/dijkstra_small'
src/sim/mem_state.cc:443: info: Increasing stack size by one page.
src/sim/syscall_emul.cc:74: warn: ignoring syscall mprotect(...)
100000000000: Event_61: system.cpu progress event, total committed:23935296, progress insts committed: 23935296, IPC: 0.239353
Exiting @ tick 156273465000 because exiting with last active thread context
[done] 21:50:09 rc=0 elapsed=209s outdir=/home/xfalc/arq/TP4_EX4/m5out/q4/A7_nolimit_20260210/L1_2kB/dijkstra
[run ] 21:50:09 outdir=/home/xfalc/arq/TP4_EX4/m5out/q4/A7_nolimit_20260210/L1_2kB/blowfish_enc
Global frequency set at 1000000000000 ticks per second
src/mem/dram_interface.cc:690: warn: DRAM device capacity (8192 Mbytes) does not match the address range assigned (2048 Mbytes)
src/base/statistics.hh:279: warn: One of the stats is a legacy stat. Legacy stat is a stat that does not belong to any statistics::Group. Legacy stat is deprecated.
system.remote_gdb: Listening for connections on port 7000
Redirecting stdout and stderr to /home/xfalc/arq/TP4_EX4/m5out/q4/A7_nolimit_20260210/L1_2kB/blowfish_enc/simout
gem5 Simulator System.  https://www.gem5.org
gem5 is copyrighted software; use the --copyright option for details.

gem5 version 23.0.0.1
gem5 compiled Jan 26 2026 00:01:36
gem5 started Feb 10 2026 21:50:09
gem5 executing on notebook, pid 100363
command line: /opt/gem5/build/RISCV/gem5.opt -r -d /home/xfalc/arq/TP4_EX4/m5out/q4/A7_nolimit_20260210/L1_2kB/blowfish_enc /home/xfalc/arq/TP4_EX4/gem5/se_A7_q4.py --l1 2kB --maxinsts 0 --progress 10 --cmd /home/xfalc/arq/TP4_EX4/bench/bin/bf --options e /home/xfalc/arq/TP4_EX4/bench/mibench/security/blowfish/input_small.asc /home/xfalc/arq/TP4_EX4/m5out/q4/A7_nolimit_20260210/L1_2kB/blowfish_enc/output_small.enc 1234567890abcdeffedcba0987654321

src/sim/simulate.cc:194: info: Entering event queue @ 0.  Starting simulation...
src/sim/syscall_emul.cc:85: warn: ignoring syscall set_robust_list(...)
      (further warnings will be suppressed)
src/sim/syscall_emul.hh:1014: warn: readlink() called on '/proc/self/exe' may yield unexpected results in various settings.
      Returning '/home/xfalc/arq/TP4_EX4/bench/bin/bf'
src/sim/mem_state.cc:443: info: Increasing stack size by one page.
src/sim/syscall_emul.cc:74: warn: ignoring syscall mprotect(...)
src/sim/mem_state.cc:443: info: Increasing stack size by one page.
100000000000: Event_61: system.cpu progress event, total committed:25854090, progress insts committed: 25854090, IPC: 0.258541
Exiting @ tick 199107546000 because exiting with last active thread context
[done] 21:54:41 rc=0 elapsed=272s outdir=/home/xfalc/arq/TP4_EX4/m5out/q4/A7_nolimit_20260210/L1_2kB/blowfish_enc
[run ] 21:54:41 outdir=/home/xfalc/arq/TP4_EX4/m5out/q4/A7_nolimit_20260210/L1_2kB/blowfish_dec
Global frequency set at 1000000000000 ticks per second
src/mem/dram_interface.cc:690: warn: DRAM device capacity (8192 Mbytes) does not match the address range assigned (2048 Mbytes)
src/base/statistics.hh:279: warn: One of the stats is a legacy stat. Legacy stat is a stat that does not belong to any statistics::Group. Legacy stat is deprecated.
system.remote_gdb: Listening for connections on port 7000
Redirecting stdout and stderr to /home/xfalc/arq/TP4_EX4/m5out/q4/A7_nolimit_20260210/L1_2kB/blowfish_dec/simout
gem5 Simulator System.  https://www.gem5.org
gem5 is copyrighted software; use the --copyright option for details.

gem5 version 23.0.0.1
gem5 compiled Jan 26 2026 00:01:36
gem5 started Feb 10 2026 21:54:41
gem5 executing on notebook, pid 100961
command line: /opt/gem5/build/RISCV/gem5.opt -r -d /home/xfalc/arq/TP4_EX4/m5out/q4/A7_nolimit_20260210/L1_2kB/blowfish_dec /home/xfalc/arq/TP4_EX4/gem5/se_A7_q4.py --l1 2kB --maxinsts 0 --progress 10 --cmd /home/xfalc/arq/TP4_EX4/bench/bin/bf --options d /home/xfalc/arq/TP4_EX4/m5out/q4/A7_nolimit_20260210/L1_2kB/blowfish_enc/output_small.enc /home/xfalc/arq/TP4_EX4/m5out/q4/A7_nolimit_20260210/L1_2kB/blowfish_dec/output_small.asc 1234567890abcdeffedcba0987654321

src/sim/simulate.cc:194: info: Entering event queue @ 0.  Starting simulation...
src/sim/syscall_emul.cc:85: warn: ignoring syscall set_robust_list(...)
      (further warnings will be suppressed)
src/sim/syscall_emul.hh:1014: warn: readlink() called on '/proc/self/exe' may yield unexpected results in various settings.
      Returning '/home/xfalc/arq/TP4_EX4/bench/bin/bf'
src/sim/mem_state.cc:443: info: Increasing stack size by one page.
src/sim/syscall_emul.cc:74: warn: ignoring syscall mprotect(...)
src/sim/mem_state.cc:443: info: Increasing stack size by one page.
100000000000: Event_61: system.cpu progress event, total committed:25949577, progress insts committed: 25949577, IPC: 0.259496
Exiting @ tick 198376054000 because exiting with last active thread context
[done] 21:59:07 rc=0 elapsed=266s outdir=/home/xfalc/arq/TP4_EX4/m5out/q4/A7_nolimit_20260210/L1_2kB/blowfish_dec
\n=== L1=4kB ===
[run ] 21:59:07 outdir=/home/xfalc/arq/TP4_EX4/m5out/q4/A7_nolimit_20260210/L1_4kB/dijkstra
Global frequency set at 1000000000000 ticks per second
src/mem/dram_interface.cc:690: warn: DRAM device capacity (8192 Mbytes) does not match the address range assigned (2048 Mbytes)
src/base/statistics.hh:279: warn: One of the stats is a legacy stat. Legacy stat is a stat that does not belong to any statistics::Group. Legacy stat is deprecated.
system.remote_gdb: Listening for connections on port 7000
Redirecting stdout and stderr to /home/xfalc/arq/TP4_EX4/m5out/q4/A7_nolimit_20260210/L1_4kB/dijkstra/simout
gem5 Simulator System.  https://www.gem5.org
gem5 is copyrighted software; use the --copyright option for details.

gem5 version 23.0.0.1
gem5 compiled Jan 26 2026 00:01:36
gem5 started Feb 10 2026 21:59:07
gem5 executing on notebook, pid 101541
command line: /opt/gem5/build/RISCV/gem5.opt -r -d /home/xfalc/arq/TP4_EX4/m5out/q4/A7_nolimit_20260210/L1_4kB/dijkstra /home/xfalc/arq/TP4_EX4/gem5/se_A7_q4.py --l1 4kB --maxinsts 0 --progress 10 --cmd /home/xfalc/arq/TP4_EX4/bench/bin/dijkstra_small --options /home/xfalc/arq/TP4_EX4/bench/mibench/network/dijkstra/input.dat

src/sim/simulate.cc:194: info: Entering event queue @ 0.  Starting simulation...
src/sim/syscall_emul.cc:85: warn: ignoring syscall set_robust_list(...)
      (further warnings will be suppressed)
src/sim/syscall_emul.hh:1014: warn: readlink() called on '/proc/self/exe' may yield unexpected results in various settings.
      Returning '/home/xfalc/arq/TP4_EX4/bench/bin/dijkstra_small'
src/sim/mem_state.cc:443: info: Increasing stack size by one page.
src/sim/syscall_emul.cc:74: warn: ignoring syscall mprotect(...)
100000000000: Event_61: system.cpu progress event, total committed:25219504, progress insts committed: 25219504, IPC: 0.252195
Exiting @ tick 147846369000 because exiting with last active thread context
[done] 22:02:24 rc=0 elapsed=197s outdir=/home/xfalc/arq/TP4_EX4/m5out/q4/A7_nolimit_20260210/L1_4kB/dijkstra
[run ] 22:02:24 outdir=/home/xfalc/arq/TP4_EX4/m5out/q4/A7_nolimit_20260210/L1_4kB/blowfish_enc
Global frequency set at 1000000000000 ticks per second
src/mem/dram_interface.cc:690: warn: DRAM device capacity (8192 Mbytes) does not match the address range assigned (2048 Mbytes)
src/base/statistics.hh:279: warn: One of the stats is a legacy stat. Legacy stat is a stat that does not belong to any statistics::Group. Legacy stat is deprecated.
system.remote_gdb: Listening for connections on port 7000
Redirecting stdout and stderr to /home/xfalc/arq/TP4_EX4/m5out/q4/A7_nolimit_20260210/L1_4kB/blowfish_enc/simout
gem5 Simulator System.  https://www.gem5.org
gem5 is copyrighted software; use the --copyright option for details.

gem5 version 23.0.0.1
gem5 compiled Jan 26 2026 00:01:36
gem5 started Feb 10 2026 22:02:25
gem5 executing on notebook, pid 101982
command line: /opt/gem5/build/RISCV/gem5.opt -r -d /home/xfalc/arq/TP4_EX4/m5out/q4/A7_nolimit_20260210/L1_4kB/blowfish_enc /home/xfalc/arq/TP4_EX4/gem5/se_A7_q4.py --l1 4kB --maxinsts 0 --progress 10 --cmd /home/xfalc/arq/TP4_EX4/bench/bin/bf --options e /home/xfalc/arq/TP4_EX4/bench/mibench/security/blowfish/input_small.asc /home/xfalc/arq/TP4_EX4/m5out/q4/A7_nolimit_20260210/L1_4kB/blowfish_enc/output_small.enc 1234567890abcdeffedcba0987654321

src/sim/simulate.cc:194: info: Entering event queue @ 0.  Starting simulation...
src/sim/syscall_emul.cc:85: warn: ignoring syscall set_robust_list(...)
      (further warnings will be suppressed)
src/sim/syscall_emul.hh:1014: warn: readlink() called on '/proc/self/exe' may yield unexpected results in various settings.
      Returning '/home/xfalc/arq/TP4_EX4/bench/bin/bf'
src/sim/mem_state.cc:443: info: Increasing stack size by one page.
src/sim/syscall_emul.cc:74: warn: ignoring syscall mprotect(...)
src/sim/mem_state.cc:443: info: Increasing stack size by one page.
100000000000: Event_61: system.cpu progress event, total committed:27065874, progress insts committed: 27065874, IPC: 0.270659
Exiting @ tick 190257502000 because exiting with last active thread context
[done] 22:06:36 rc=0 elapsed=252s outdir=/home/xfalc/arq/TP4_EX4/m5out/q4/A7_nolimit_20260210/L1_4kB/blowfish_enc
[run ] 22:06:36 outdir=/home/xfalc/arq/TP4_EX4/m5out/q4/A7_nolimit_20260210/L1_4kB/blowfish_dec
Global frequency set at 1000000000000 ticks per second
src/mem/dram_interface.cc:690: warn: DRAM device capacity (8192 Mbytes) does not match the address range assigned (2048 Mbytes)
src/base/statistics.hh:279: warn: One of the stats is a legacy stat. Legacy stat is a stat that does not belong to any statistics::Group. Legacy stat is deprecated.
system.remote_gdb: Listening for connections on port 7000
Redirecting stdout and stderr to /home/xfalc/arq/TP4_EX4/m5out/q4/A7_nolimit_20260210/L1_4kB/blowfish_dec/simout
gem5 Simulator System.  https://www.gem5.org
gem5 is copyrighted software; use the --copyright option for details.

gem5 version 23.0.0.1
gem5 compiled Jan 26 2026 00:01:36
gem5 started Feb 10 2026 22:06:36
gem5 executing on notebook, pid 102538
command line: /opt/gem5/build/RISCV/gem5.opt -r -d /home/xfalc/arq/TP4_EX4/m5out/q4/A7_nolimit_20260210/L1_4kB/blowfish_dec /home/xfalc/arq/TP4_EX4/gem5/se_A7_q4.py --l1 4kB --maxinsts 0 --progress 10 --cmd /home/xfalc/arq/TP4_EX4/bench/bin/bf --options d /home/xfalc/arq/TP4_EX4/m5out/q4/A7_nolimit_20260210/L1_4kB/blowfish_enc/output_small.enc /home/xfalc/arq/TP4_EX4/m5out/q4/A7_nolimit_20260210/L1_4kB/blowfish_dec/output_small.asc 1234567890abcdeffedcba0987654321

src/sim/simulate.cc:194: info: Entering event queue @ 0.  Starting simulation...
src/sim/syscall_emul.cc:85: warn: ignoring syscall set_robust_list(...)
      (further warnings will be suppressed)
src/sim/syscall_emul.hh:1014: warn: readlink() called on '/proc/self/exe' may yield unexpected results in various settings.
      Returning '/home/xfalc/arq/TP4_EX4/bench/bin/bf'
src/sim/mem_state.cc:443: info: Increasing stack size by one page.
src/sim/syscall_emul.cc:74: warn: ignoring syscall mprotect(...)
src/sim/mem_state.cc:443: info: Increasing stack size by one page.
100000000000: Event_61: system.cpu progress event, total committed:27154644, progress insts committed: 27154644, IPC: 0.271546
Exiting @ tick 189633068000 because exiting with last active thread context
[done] 22:10:51 rc=0 elapsed=255s outdir=/home/xfalc/arq/TP4_EX4/m5out/q4/A7_nolimit_20260210/L1_4kB/blowfish_dec
\n=== L1=8kB ===
[run ] 22:10:51 outdir=/home/xfalc/arq/TP4_EX4/m5out/q4/A7_nolimit_20260210/L1_8kB/dijkstra
Global frequency set at 1000000000000 ticks per second
src/mem/dram_interface.cc:690: warn: DRAM device capacity (8192 Mbytes) does not match the address range assigned (2048 Mbytes)
src/base/statistics.hh:279: warn: One of the stats is a legacy stat. Legacy stat is a stat that does not belong to any statistics::Group. Legacy stat is deprecated.
system.remote_gdb: Listening for connections on port 7000
Redirecting stdout and stderr to /home/xfalc/arq/TP4_EX4/m5out/q4/A7_nolimit_20260210/L1_8kB/dijkstra/simout
gem5 Simulator System.  https://www.gem5.org
gem5 is copyrighted software; use the --copyright option for details.

gem5 version 23.0.0.1
gem5 compiled Jan 26 2026 00:01:36
gem5 started Feb 10 2026 22:10:51
gem5 executing on notebook, pid 103197
command line: /opt/gem5/build/RISCV/gem5.opt -r -d /home/xfalc/arq/TP4_EX4/m5out/q4/A7_nolimit_20260210/L1_8kB/dijkstra /home/xfalc/arq/TP4_EX4/gem5/se_A7_q4.py --l1 8kB --maxinsts 0 --progress 10 --cmd /home/xfalc/arq/TP4_EX4/bench/bin/dijkstra_small --options /home/xfalc/arq/TP4_EX4/bench/mibench/network/dijkstra/input.dat

src/sim/simulate.cc:194: info: Entering event queue @ 0.  Starting simulation...
src/sim/syscall_emul.cc:85: warn: ignoring syscall set_robust_list(...)
      (further warnings will be suppressed)
src/sim/syscall_emul.hh:1014: warn: readlink() called on '/proc/self/exe' may yield unexpected results in various settings.
      Returning '/home/xfalc/arq/TP4_EX4/bench/bin/dijkstra_small'
src/sim/mem_state.cc:443: info: Increasing stack size by one page.
src/sim/syscall_emul.cc:74: warn: ignoring syscall mprotect(...)
100000000000: Event_61: system.cpu progress event, total committed:27578962, progress insts committed: 27578962, IPC: 00.27579
Exiting @ tick 134348629000 because exiting with last active thread context
[done] 22:13:58 rc=0 elapsed=187s outdir=/home/xfalc/arq/TP4_EX4/m5out/q4/A7_nolimit_20260210/L1_8kB/dijkstra
[run ] 22:13:58 outdir=/home/xfalc/arq/TP4_EX4/m5out/q4/A7_nolimit_20260210/L1_8kB/blowfish_enc
Global frequency set at 1000000000000 ticks per second
src/mem/dram_interface.cc:690: warn: DRAM device capacity (8192 Mbytes) does not match the address range assigned (2048 Mbytes)
src/base/statistics.hh:279: warn: One of the stats is a legacy stat. Legacy stat is a stat that does not belong to any statistics::Group. Legacy stat is deprecated.
system.remote_gdb: Listening for connections on port 7000
Redirecting stdout and stderr to /home/xfalc/arq/TP4_EX4/m5out/q4/A7_nolimit_20260210/L1_8kB/blowfish_enc/simout
gem5 Simulator System.  https://www.gem5.org
gem5 is copyrighted software; use the --copyright option for details.

gem5 version 23.0.0.1
gem5 compiled Jan 26 2026 00:01:36
gem5 started Feb 10 2026 22:13:58
gem5 executing on notebook, pid 103615
command line: /opt/gem5/build/RISCV/gem5.opt -r -d /home/xfalc/arq/TP4_EX4/m5out/q4/A7_nolimit_20260210/L1_8kB/blowfish_enc /home/xfalc/arq/TP4_EX4/gem5/se_A7_q4.py --l1 8kB --maxinsts 0 --progress 10 --cmd /home/xfalc/arq/TP4_EX4/bench/bin/bf --options e /home/xfalc/arq/TP4_EX4/bench/mibench/security/blowfish/input_small.asc /home/xfalc/arq/TP4_EX4/m5out/q4/A7_nolimit_20260210/L1_8kB/blowfish_enc/output_small.enc 1234567890abcdeffedcba0987654321

src/sim/simulate.cc:194: info: Entering event queue @ 0.  Starting simulation...
src/sim/syscall_emul.cc:85: warn: ignoring syscall set_robust_list(...)
      (further warnings will be suppressed)
src/sim/syscall_emul.hh:1014: warn: readlink() called on '/proc/self/exe' may yield unexpected results in various settings.
      Returning '/home/xfalc/arq/TP4_EX4/bench/bin/bf'
src/sim/mem_state.cc:443: info: Increasing stack size by one page.
src/sim/syscall_emul.cc:74: warn: ignoring syscall mprotect(...)
src/sim/mem_state.cc:443: info: Increasing stack size by one page.
100000000000: Event_61: system.cpu progress event, total committed:29732741, progress insts committed: 29732741, IPC: 0.297327
Exiting @ tick 173292147000 because exiting with last active thread context
[done] 22:18:00 rc=0 elapsed=242s outdir=/home/xfalc/arq/TP4_EX4/m5out/q4/A7_nolimit_20260210/L1_8kB/blowfish_enc
[run ] 22:18:00 outdir=/home/xfalc/arq/TP4_EX4/m5out/q4/A7_nolimit_20260210/L1_8kB/blowfish_dec
Global frequency set at 1000000000000 ticks per second
src/mem/dram_interface.cc:690: warn: DRAM device capacity (8192 Mbytes) does not match the address range assigned (2048 Mbytes)
src/base/statistics.hh:279: warn: One of the stats is a legacy stat. Legacy stat is a stat that does not belong to any statistics::Group. Legacy stat is deprecated.
system.remote_gdb: Listening for connections on port 7000
Redirecting stdout and stderr to /home/xfalc/arq/TP4_EX4/m5out/q4/A7_nolimit_20260210/L1_8kB/blowfish_dec/simout
gem5 Simulator System.  https://www.gem5.org
gem5 is copyrighted software; use the --copyright option for details.

gem5 version 23.0.0.1
gem5 compiled Jan 26 2026 00:01:36
gem5 started Feb 10 2026 22:18:00
gem5 executing on notebook, pid 104171
command line: /opt/gem5/build/RISCV/gem5.opt -r -d /home/xfalc/arq/TP4_EX4/m5out/q4/A7_nolimit_20260210/L1_8kB/blowfish_dec /home/xfalc/arq/TP4_EX4/gem5/se_A7_q4.py --l1 8kB --maxinsts 0 --progress 10 --cmd /home/xfalc/arq/TP4_EX4/bench/bin/bf --options d /home/xfalc/arq/TP4_EX4/m5out/q4/A7_nolimit_20260210/L1_8kB/blowfish_enc/output_small.enc /home/xfalc/arq/TP4_EX4/m5out/q4/A7_nolimit_20260210/L1_8kB/blowfish_dec/output_small.asc 1234567890abcdeffedcba0987654321

src/sim/simulate.cc:194: info: Entering event queue @ 0.  Starting simulation...
src/sim/syscall_emul.cc:85: warn: ignoring syscall set_robust_list(...)
      (further warnings will be suppressed)
src/sim/syscall_emul.hh:1014: warn: readlink() called on '/proc/self/exe' may yield unexpected results in various settings.
      Returning '/home/xfalc/arq/TP4_EX4/bench/bin/bf'
src/sim/mem_state.cc:443: info: Increasing stack size by one page.
src/sim/syscall_emul.cc:74: warn: ignoring syscall mprotect(...)
src/sim/mem_state.cc:443: info: Increasing stack size by one page.
100000000000: Event_61: system.cpu progress event, total committed:29764773, progress insts committed: 29764773, IPC: 0.297648
Exiting @ tick 173099342000 because exiting with last active thread context
[done] 22:21:57 rc=0 elapsed=237s outdir=/home/xfalc/arq/TP4_EX4/m5out/q4/A7_nolimit_20260210/L1_8kB/blowfish_dec
\n=== L1=16kB ===
[run ] 22:21:57 outdir=/home/xfalc/arq/TP4_EX4/m5out/q4/A7_nolimit_20260210/L1_16kB/dijkstra
Global frequency set at 1000000000000 ticks per second
src/mem/dram_interface.cc:690: warn: DRAM device capacity (8192 Mbytes) does not match the address range assigned (2048 Mbytes)
src/base/statistics.hh:279: warn: One of the stats is a legacy stat. Legacy stat is a stat that does not belong to any statistics::Group. Legacy stat is deprecated.
system.remote_gdb: Listening for connections on port 7000
Redirecting stdout and stderr to /home/xfalc/arq/TP4_EX4/m5out/q4/A7_nolimit_20260210/L1_16kB/dijkstra/simout
gem5 Simulator System.  https://www.gem5.org
gem5 is copyrighted software; use the --copyright option for details.

gem5 version 23.0.0.1
gem5 compiled Jan 26 2026 00:01:36
gem5 started Feb 10 2026 22:21:57
gem5 executing on notebook, pid 104696
command line: /opt/gem5/build/RISCV/gem5.opt -r -d /home/xfalc/arq/TP4_EX4/m5out/q4/A7_nolimit_20260210/L1_16kB/dijkstra /home/xfalc/arq/TP4_EX4/gem5/se_A7_q4.py --l1 16kB --maxinsts 0 --progress 10 --cmd /home/xfalc/arq/TP4_EX4/bench/bin/dijkstra_small --options /home/xfalc/arq/TP4_EX4/bench/mibench/network/dijkstra/input.dat

src/sim/simulate.cc:194: info: Entering event queue @ 0.  Starting simulation...
src/sim/syscall_emul.cc:85: warn: ignoring syscall set_robust_list(...)
      (further warnings will be suppressed)
src/sim/syscall_emul.hh:1014: warn: readlink() called on '/proc/self/exe' may yield unexpected results in various settings.
      Returning '/home/xfalc/arq/TP4_EX4/bench/bin/dijkstra_small'
src/sim/mem_state.cc:443: info: Increasing stack size by one page.
src/sim/syscall_emul.cc:74: warn: ignoring syscall mprotect(...)
100000000000: Event_61: system.cpu progress event, total committed:28413967, progress insts committed: 28413967, IPC: 00.28414
Exiting @ tick 130194337000 because exiting with last active thread context
[done] 22:25:02 rc=0 elapsed=185s outdir=/home/xfalc/arq/TP4_EX4/m5out/q4/A7_nolimit_20260210/L1_16kB/dijkstra
[run ] 22:25:02 outdir=/home/xfalc/arq/TP4_EX4/m5out/q4/A7_nolimit_20260210/L1_16kB/blowfish_enc
Global frequency set at 1000000000000 ticks per second
src/mem/dram_interface.cc:690: warn: DRAM device capacity (8192 Mbytes) does not match the address range assigned (2048 Mbytes)
src/base/statistics.hh:279: warn: One of the stats is a legacy stat. Legacy stat is a stat that does not belong to any statistics::Group. Legacy stat is deprecated.
system.remote_gdb: Listening for connections on port 7000
Redirecting stdout and stderr to /home/xfalc/arq/TP4_EX4/m5out/q4/A7_nolimit_20260210/L1_16kB/blowfish_enc/simout
gem5 Simulator System.  https://www.gem5.org
gem5 is copyrighted software; use the --copyright option for details.

gem5 version 23.0.0.1
gem5 compiled Jan 26 2026 00:01:36
gem5 started Feb 10 2026 22:25:02
gem5 executing on notebook, pid 105188
command line: /opt/gem5/build/RISCV/gem5.opt -r -d /home/xfalc/arq/TP4_EX4/m5out/q4/A7_nolimit_20260210/L1_16kB/blowfish_enc /home/xfalc/arq/TP4_EX4/gem5/se_A7_q4.py --l1 16kB --maxinsts 0 --progress 10 --cmd /home/xfalc/arq/TP4_EX4/bench/bin/bf --options e /home/xfalc/arq/TP4_EX4/bench/mibench/security/blowfish/input_small.asc /home/xfalc/arq/TP4_EX4/m5out/q4/A7_nolimit_20260210/L1_16kB/blowfish_enc/output_small.enc 1234567890abcdeffedcba0987654321

src/sim/simulate.cc:194: info: Entering event queue @ 0.  Starting simulation...
src/sim/syscall_emul.cc:85: warn: ignoring syscall set_robust_list(...)
      (further warnings will be suppressed)
src/sim/syscall_emul.hh:1014: warn: readlink() called on '/proc/self/exe' may yield unexpected results in various settings.
      Returning '/home/xfalc/arq/TP4_EX4/bench/bin/bf'
src/sim/mem_state.cc:443: info: Increasing stack size by one page.
src/sim/syscall_emul.cc:74: warn: ignoring syscall mprotect(...)
src/sim/mem_state.cc:443: info: Increasing stack size by one page.
100000000000: Event_61: system.cpu progress event, total committed:29884385, progress insts committed: 29884385, IPC: 0.298844
Exiting @ tick 172410263000 because exiting with last active thread context
[done] 22:29:00 rc=0 elapsed=238s outdir=/home/xfalc/arq/TP4_EX4/m5out/q4/A7_nolimit_20260210/L1_16kB/blowfish_enc
[run ] 22:29:00 outdir=/home/xfalc/arq/TP4_EX4/m5out/q4/A7_nolimit_20260210/L1_16kB/blowfish_dec
Global frequency set at 1000000000000 ticks per second
src/mem/dram_interface.cc:690: warn: DRAM device capacity (8192 Mbytes) does not match the address range assigned (2048 Mbytes)
src/base/statistics.hh:279: warn: One of the stats is a legacy stat. Legacy stat is a stat that does not belong to any statistics::Group. Legacy stat is deprecated.
system.remote_gdb: Listening for connections on port 7000
Redirecting stdout and stderr to /home/xfalc/arq/TP4_EX4/m5out/q4/A7_nolimit_20260210/L1_16kB/blowfish_dec/simout
gem5 Simulator System.  https://www.gem5.org
gem5 is copyrighted software; use the --copyright option for details.

gem5 version 23.0.0.1
gem5 compiled Jan 26 2026 00:01:36
gem5 started Feb 10 2026 22:29:00
gem5 executing on notebook, pid 105720
command line: /opt/gem5/build/RISCV/gem5.opt -r -d /home/xfalc/arq/TP4_EX4/m5out/q4/A7_nolimit_20260210/L1_16kB/blowfish_dec /home/xfalc/arq/TP4_EX4/gem5/se_A7_q4.py --l1 16kB --maxinsts 0 --progress 10 --cmd /home/xfalc/arq/TP4_EX4/bench/bin/bf --options d /home/xfalc/arq/TP4_EX4/m5out/q4/A7_nolimit_20260210/L1_16kB/blowfish_enc/output_small.enc /home/xfalc/arq/TP4_EX4/m5out/q4/A7_nolimit_20260210/L1_16kB/blowfish_dec/output_small.asc 1234567890abcdeffedcba0987654321

src/sim/simulate.cc:194: info: Entering event queue @ 0.  Starting simulation...
src/sim/syscall_emul.cc:85: warn: ignoring syscall set_robust_list(...)
      (further warnings will be suppressed)
src/sim/syscall_emul.hh:1014: warn: readlink() called on '/proc/self/exe' may yield unexpected results in various settings.
      Returning '/home/xfalc/arq/TP4_EX4/bench/bin/bf'
src/sim/mem_state.cc:443: info: Increasing stack size by one page.
src/sim/syscall_emul.cc:74: warn: ignoring syscall mprotect(...)
src/sim/mem_state.cc:443: info: Increasing stack size by one page.
100000000000: Event_61: system.cpu progress event, total committed:29916210, progress insts committed: 29916210, IPC: 0.299162
Exiting @ tick 172217571000 because exiting with last active thread context
[done] 22:33:02 rc=0 elapsed=242s outdir=/home/xfalc/arq/TP4_EX4/m5out/q4/A7_nolimit_20260210/L1_16kB/blowfish_dec
\nDone. Results in: /home/xfalc/arq/TP4_EX4/m5out/q4/A7_nolimit_20260210
[pipeline] sweep done: 2026-02-10T22:33:02+01:00
[pipeline] collecting results...
Wrote CSV: /home/xfalc/arq/TP4_EX4/analysis/q4_a7_results.csv
Wrote figures under: /home/xfalc/arq/TP4_EX4/tex/figs/q4
Wrote LaTeX table: /home/xfalc/arq/TP4_EX4/tex/tables/q4_a7_summary.tex
[pipeline] building pdf...
Rc files read:
  /etc/LatexMk
Latexmk: This is Latexmk, John Collins, 31 Jan. 2024. Version 4.83.
Latexmk: applying rule 'pdflatex'...
Rule 'pdflatex':  Reasons for rerun
Changed files or newly in use/created:
  figs/q4/a7_blowfish_cycles.png
  figs/q4/a7_blowfish_dl1_miss.png
  figs/q4/a7_blowfish_il1_miss.png
  figs/q4/a7_blowfish_ipc.png
  figs/q4/a7_dijkstra_cycles.png
  figs/q4/a7_dijkstra_dl1_miss.png
  figs/q4/a7_dijkstra_il1_miss.png
  figs/q4/a7_dijkstra_ipc.png
  out/q4.aux
  out/q4.out
  tables/q4_a7_summary.tex
Category 'changed_user':
  figs/q4/a7_blowfish_cycles.png
  figs/q4/a7_blowfish_dl1_miss.png
  figs/q4/a7_blowfish_il1_miss.png
  figs/q4/a7_blowfish_ipc.png
  figs/q4/a7_dijkstra_cycles.png
  figs/q4/a7_dijkstra_dl1_miss.png
  figs/q4/a7_dijkstra_il1_miss.png
  figs/q4/a7_dijkstra_ipc.png
  tables/q4_a7_summary.tex

------------
Run number 1 of rule 'pdflatex'
------------
------------
Running 'pdflatex  -interaction=nonstopmode -halt-on-error -recorder -output-directory="out"  "q4.tex"'
------------
This is pdfTeX, Version 3.141592653-2.6-1.40.25 (TeX Live 2023/Debian) (preloaded format=pdflatex)
 restricted \write18 enabled.
entering extended mode
(./q4.tex
LaTeX2e <2023-11-01> patch level 1
L3 programming layer <2024-01-22>
(/usr/share/texlive/texmf-dist/tex/latex/base/article.cls
Document Class: article 2023/05/17 v1.4n Standard LaTeX document class
(/usr/share/texlive/texmf-dist/tex/latex/base/size11.clo))
(/usr/share/texlive/texmf-dist/tex/latex/base/inputenc.sty)
(/usr/share/texlive/texmf-dist/tex/latex/base/fontenc.sty)
(/usr/share/texmf/tex/latex/lm/lmodern.sty)
(/usr/share/texlive/texmf-dist/tex/latex/geometry/geometry.sty
(/usr/share/texlive/texmf-dist/tex/latex/graphics/keyval.sty)
(/usr/share/texlive/texmf-dist/tex/generic/iftex/ifvtex.sty
(/usr/share/texlive/texmf-dist/tex/generic/iftex/iftex.sty)))
(/usr/share/texlive/texmf-dist/tex/latex/graphics/graphicx.sty
(/usr/share/texlive/texmf-dist/tex/latex/graphics/graphics.sty
(/usr/share/texlive/texmf-dist/tex/latex/graphics/trig.sty)
(/usr/share/texlive/texmf-dist/tex/latex/graphics-cfg/graphics.cfg)
(/usr/share/texlive/texmf-dist/tex/latex/graphics-def/pdftex.def)))
(/usr/share/texlive/texmf-dist/tex/latex/booktabs/booktabs.sty)
(/usr/share/texlive/texmf-dist/tex/latex/siunitx/siunitx.sty
(/usr/share/texlive/texmf-dist/tex/latex/amsmath/amstext.sty
(/usr/share/texlive/texmf-dist/tex/latex/amsmath/amsgen.sty))
(/usr/share/texlive/texmf-dist/tex/latex/tools/array.sty))
(/usr/share/texlive/texmf-dist/tex/latex/hyperref/hyperref.sty
(/usr/share/texlive/texmf-dist/tex/latex/kvsetkeys/kvsetkeys.sty)
(/usr/share/texlive/texmf-dist/tex/generic/kvdefinekeys/kvdefinekeys.sty)
(/usr/share/texlive/texmf-dist/tex/generic/pdfescape/pdfescape.sty
(/usr/share/texlive/texmf-dist/tex/generic/ltxcmds/ltxcmds.sty)
(/usr/share/texlive/texmf-dist/tex/generic/pdftexcmds/pdftexcmds.sty
(/usr/share/texlive/texmf-dist/tex/generic/infwarerr/infwarerr.sty)))
(/usr/share/texlive/texmf-dist/tex/latex/hycolor/hycolor.sty)
(/usr/share/texlive/texmf-dist/tex/latex/auxhook/auxhook.sty)
(/usr/share/texlive/texmf-dist/tex/latex/hyperref/nameref.sty
(/usr/share/texlive/texmf-dist/tex/latex/refcount/refcount.sty)
(/usr/share/texlive/texmf-dist/tex/generic/gettitlestring/gettitlestring.sty
(/usr/share/texlive/texmf-dist/tex/latex/kvoptions/kvoptions.sty)))
(/usr/share/texlive/texmf-dist/tex/latex/etoolbox/etoolbox.sty)
(/usr/share/texlive/texmf-dist/tex/latex/hyperref/pd1enc.def)
(/usr/share/texlive/texmf-dist/tex/generic/intcalc/intcalc.sty)
(/usr/share/texlive/texmf-dist/tex/latex/hyperref/puenc.def)
(/usr/share/texlive/texmf-dist/tex/latex/url/url.sty)
(/usr/share/texlive/texmf-dist/tex/generic/bitset/bitset.sty
(/usr/share/texlive/texmf-dist/tex/generic/bigintcalc/bigintcalc.sty))
(/usr/share/texlive/texmf-dist/tex/latex/base/atbegshi-ltx.sty))
(/usr/share/texlive/texmf-dist/tex/latex/hyperref/hpdftex.def
(/usr/share/texlive/texmf-dist/tex/latex/base/atveryend-ltx.sty)
(/usr/share/texlive/texmf-dist/tex/latex/rerunfilecheck/rerunfilecheck.sty
(/usr/share/texlive/texmf-dist/tex/generic/uniquecounter/uniquecounter.sty)))
(/usr/share/texlive/texmf-dist/tex/latex/graphics/color.sty
(/usr/share/texlive/texmf-dist/tex/latex/graphics-cfg/color.cfg)
(/usr/share/texlive/texmf-dist/tex/latex/graphics/mathcolor.ltx))
(/usr/share/texmf/tex/latex/lm/t1lmr.fd)
(/usr/share/texlive/texmf-dist/tex/latex/l3backend/l3backend-pdftex.def)
(out/q4.aux)
*geometry* driver: auto-detecting
*geometry* detected driver: pdftex
(/usr/share/texlive/texmf-dist/tex/context/base/mkii/supp-pdf.mkii
[Loading MPS to PDF converter (version 2006.09.02).]
) (/usr/share/texlive/texmf-dist/tex/latex/epstopdf-pkg/epstopdf-base.sty
(/usr/share/texlive/texmf-dist/tex/latex/latexconfig/epstopdf-sys.cfg))
(out/q4.out) (out/q4.out) (/usr/share/texmf/tex/latex/lm/ot1lmr.fd)
(/usr/share/texmf/tex/latex/lm/omllmm.fd)
(/usr/share/texmf/tex/latex/lm/omslmsy.fd)
(/usr/share/texmf/tex/latex/lm/omxlmex.fd)
(/usr/share/texmf/tex/latex/lm/ts1lmr.fd)
(/usr/share/texmf/tex/latex/lm/t1lmtt.fd) [1{/var/lib/texmf/fonts/map/pdftex/up
dmap/pdftex.map}{/usr/share/texmf/fonts/enc/dvips/lm/lm-ec.enc}{/usr/share/texm
f/fonts/enc/dvips/lm/lm-rm.enc}{/usr/share/texmf/fonts/enc/dvips/lm/lm-ts1.enc}
] (./tables/q4_a7_summary.tex)

LaTeX Warning: `h' float specifier changed to `ht'.


LaTeX Warning: `h' float specifier changed to `ht'.


LaTeX Warning: `h' float specifier changed to `ht'.


LaTeX Warning: `h' float specifier changed to `ht'.


LaTeX Warning: `h' float specifier changed to `ht'.


LaTeX Warning: `h' float specifier changed to `ht'.


LaTeX Warning: `h' float specifier changed to `ht'.

[2 <./figs/q4/a7_dijkstra_cycles.png>] [3 <./figs/q4/a7_dijkstra_ipc.png> <./fi
gs/q4/a7_dijkstra_dl1_miss.png>] [4 <./figs/q4/a7_dijkstra_il1_miss.png> <./fig
s/q4/a7_blowfish_cycles.png>] [5 <./figs/q4/a7_blowfish_ipc.png> <./figs/q4/a7_
blowfish_dl1_miss.png>] [6 <./figs/q4/a7_blowfish_il1_miss.png>] (out/q4.aux) )
</usr/share/texmf/fonts/type1/public/lm/lmbx10.pfb></usr/share/texmf/fonts/type
1/public/lm/lmbx12.pfb></usr/share/texmf/fonts/type1/public/lm/lmr10.pfb></usr/
share/texmf/fonts/type1/public/lm/lmr17.pfb></usr/share/texmf/fonts/type1/publi
c/lm/lmri10.pfb></usr/share/texmf/fonts/type1/public/lm/lmtt10.pfb>
Output written on out/q4.pdf (6 pages, 536195 bytes).
Transcript written on out/q4.log.
Latexmk: Getting log file 'out/q4.log'
Latexmk: Examining 'out/q4.fls'
Latexmk: Examining 'out/q4.log'
Latexmk: Log file says output to 'out/q4.pdf'
Latexmk: applying rule 'pdflatex'...
Rule 'pdflatex':  Reasons for rerun
Changed files or newly in use/created:
  out/q4.aux
  out/q4.out

------------
Run number 2 of rule 'pdflatex'
------------
------------
Running 'pdflatex  -interaction=nonstopmode -halt-on-error -recorder -output-directory="out"  "q4.tex"'
------------
This is pdfTeX, Version 3.141592653-2.6-1.40.25 (TeX Live 2023/Debian) (preloaded format=pdflatex)
 restricted \write18 enabled.
entering extended mode
(./q4.tex
LaTeX2e <2023-11-01> patch level 1
L3 programming layer <2024-01-22>
(/usr/share/texlive/texmf-dist/tex/latex/base/article.cls
Document Class: article 2023/05/17 v1.4n Standard LaTeX document class
(/usr/share/texlive/texmf-dist/tex/latex/base/size11.clo))
(/usr/share/texlive/texmf-dist/tex/latex/base/inputenc.sty)
(/usr/share/texlive/texmf-dist/tex/latex/base/fontenc.sty)
(/usr/share/texmf/tex/latex/lm/lmodern.sty)
(/usr/share/texlive/texmf-dist/tex/latex/geometry/geometry.sty
(/usr/share/texlive/texmf-dist/tex/latex/graphics/keyval.sty)
(/usr/share/texlive/texmf-dist/tex/generic/iftex/ifvtex.sty
(/usr/share/texlive/texmf-dist/tex/generic/iftex/iftex.sty)))
(/usr/share/texlive/texmf-dist/tex/latex/graphics/graphicx.sty
(/usr/share/texlive/texmf-dist/tex/latex/graphics/graphics.sty
(/usr/share/texlive/texmf-dist/tex/latex/graphics/trig.sty)
(/usr/share/texlive/texmf-dist/tex/latex/graphics-cfg/graphics.cfg)
(/usr/share/texlive/texmf-dist/tex/latex/graphics-def/pdftex.def)))
(/usr/share/texlive/texmf-dist/tex/latex/booktabs/booktabs.sty)
(/usr/share/texlive/texmf-dist/tex/latex/siunitx/siunitx.sty
(/usr/share/texlive/texmf-dist/tex/latex/amsmath/amstext.sty
(/usr/share/texlive/texmf-dist/tex/latex/amsmath/amsgen.sty))
(/usr/share/texlive/texmf-dist/tex/latex/tools/array.sty))
(/usr/share/texlive/texmf-dist/tex/latex/hyperref/hyperref.sty
(/usr/share/texlive/texmf-dist/tex/latex/kvsetkeys/kvsetkeys.sty)
(/usr/share/texlive/texmf-dist/tex/generic/kvdefinekeys/kvdefinekeys.sty)
(/usr/share/texlive/texmf-dist/tex/generic/pdfescape/pdfescape.sty
(/usr/share/texlive/texmf-dist/tex/generic/ltxcmds/ltxcmds.sty)
(/usr/share/texlive/texmf-dist/tex/generic/pdftexcmds/pdftexcmds.sty
(/usr/share/texlive/texmf-dist/tex/generic/infwarerr/infwarerr.sty)))
(/usr/share/texlive/texmf-dist/tex/latex/hycolor/hycolor.sty)
(/usr/share/texlive/texmf-dist/tex/latex/auxhook/auxhook.sty)
(/usr/share/texlive/texmf-dist/tex/latex/hyperref/nameref.sty
(/usr/share/texlive/texmf-dist/tex/latex/refcount/refcount.sty)
(/usr/share/texlive/texmf-dist/tex/generic/gettitlestring/gettitlestring.sty
(/usr/share/texlive/texmf-dist/tex/latex/kvoptions/kvoptions.sty)))
(/usr/share/texlive/texmf-dist/tex/latex/etoolbox/etoolbox.sty)
(/usr/share/texlive/texmf-dist/tex/latex/hyperref/pd1enc.def)
(/usr/share/texlive/texmf-dist/tex/generic/intcalc/intcalc.sty)
(/usr/share/texlive/texmf-dist/tex/latex/hyperref/puenc.def)
(/usr/share/texlive/texmf-dist/tex/latex/url/url.sty)
(/usr/share/texlive/texmf-dist/tex/generic/bitset/bitset.sty
(/usr/share/texlive/texmf-dist/tex/generic/bigintcalc/bigintcalc.sty))
(/usr/share/texlive/texmf-dist/tex/latex/base/atbegshi-ltx.sty))
(/usr/share/texlive/texmf-dist/tex/latex/hyperref/hpdftex.def
(/usr/share/texlive/texmf-dist/tex/latex/base/atveryend-ltx.sty)
(/usr/share/texlive/texmf-dist/tex/latex/rerunfilecheck/rerunfilecheck.sty
(/usr/share/texlive/texmf-dist/tex/generic/uniquecounter/uniquecounter.sty)))
(/usr/share/texlive/texmf-dist/tex/latex/graphics/color.sty
(/usr/share/texlive/texmf-dist/tex/latex/graphics-cfg/color.cfg)
(/usr/share/texlive/texmf-dist/tex/latex/graphics/mathcolor.ltx))
(/usr/share/texmf/tex/latex/lm/t1lmr.fd)
(/usr/share/texlive/texmf-dist/tex/latex/l3backend/l3backend-pdftex.def)
(out/q4.aux)
*geometry* driver: auto-detecting
*geometry* detected driver: pdftex
(/usr/share/texlive/texmf-dist/tex/context/base/mkii/supp-pdf.mkii
[Loading MPS to PDF converter (version 2006.09.02).]
) (/usr/share/texlive/texmf-dist/tex/latex/epstopdf-pkg/epstopdf-base.sty
(/usr/share/texlive/texmf-dist/tex/latex/latexconfig/epstopdf-sys.cfg))
(out/q4.out) (out/q4.out) (/usr/share/texmf/tex/latex/lm/ot1lmr.fd)
(/usr/share/texmf/tex/latex/lm/omllmm.fd)
(/usr/share/texmf/tex/latex/lm/omslmsy.fd)
(/usr/share/texmf/tex/latex/lm/omxlmex.fd)
(/usr/share/texmf/tex/latex/lm/ts1lmr.fd)
(/usr/share/texmf/tex/latex/lm/t1lmtt.fd) [1{/var/lib/texmf/fonts/map/pdftex/up
dmap/pdftex.map}{/usr/share/texmf/fonts/enc/dvips/lm/lm-ec.enc}{/usr/share/texm
f/fonts/enc/dvips/lm/lm-rm.enc}{/usr/share/texmf/fonts/enc/dvips/lm/lm-ts1.enc}
] (./tables/q4_a7_summary.tex)

LaTeX Warning: `h' float specifier changed to `ht'.


LaTeX Warning: `h' float specifier changed to `ht'.


LaTeX Warning: `h' float specifier changed to `ht'.


LaTeX Warning: `h' float specifier changed to `ht'.


LaTeX Warning: `h' float specifier changed to `ht'.


LaTeX Warning: `h' float specifier changed to `ht'.


LaTeX Warning: `h' float specifier changed to `ht'.

[2 <./figs/q4/a7_dijkstra_cycles.png>] [3 <./figs/q4/a7_dijkstra_ipc.png> <./fi
gs/q4/a7_dijkstra_dl1_miss.png>] [4 <./figs/q4/a7_dijkstra_il1_miss.png> <./fig
s/q4/a7_blowfish_cycles.png>] [5 <./figs/q4/a7_blowfish_ipc.png> <./figs/q4/a7_
blowfish_dl1_miss.png>] [6 <./figs/q4/a7_blowfish_il1_miss.png>] (out/q4.aux) )
</usr/share/texmf/fonts/type1/public/lm/lmbx10.pfb></usr/share/texmf/fonts/type
1/public/lm/lmbx12.pfb></usr/share/texmf/fonts/type1/public/lm/lmr10.pfb></usr/
share/texmf/fonts/type1/public/lm/lmr17.pfb></usr/share/texmf/fonts/type1/publi
c/lm/lmri10.pfb></usr/share/texmf/fonts/type1/public/lm/lmtt10.pfb>
Output written on out/q4.pdf (6 pages, 536195 bytes).
Transcript written on out/q4.log.
Latexmk: Getting log file 'out/q4.log'
Latexmk: Examining 'out/q4.fls'
Latexmk: Examining 'out/q4.log'
Latexmk: Log file says output to 'out/q4.pdf'
Latexmk: All targets (out/q4.pdf) are up-to-date

[pipeline] finished: 2026-02-10T22:33:08+01:00
