gem5 Simulator System.  https://www.gem5.org
gem5 is copyrighted software; use the --copyright option for details.

gem5 version 23.0.0.1
gem5 compiled Jan 26 2026 00:01:36
gem5 started Feb 10 2026 20:28:36
gem5 executing on notebook, pid 80983
command line: /opt/gem5/build/RISCV/gem5.opt -r -d /home/xfalc/arq/TP4_EX4/m5out/q4/A7/L1_8kB/blowfish_enc /home/xfalc/arq/TP4_EX4/gem5/se_A7_q4.py --l1 8kB --maxinsts 10000000 --progress 1000000 --cmd /home/xfalc/arq/TP4_EX4/bench/bin/bf --options e /home/xfalc/arq/TP4_EX4/bench/mibench/security/blowfish/input_small.asc /home/xfalc/arq/TP4_EX4/m5out/q4/A7/L1_8kB/blowfish_enc/output_small.enc 1234567890abcdeffedcba0987654321

Global frequency set at 1000000000000 ticks per second
src/mem/dram_interface.cc:690: warn: DRAM device capacity (8192 Mbytes) does not match the address range assigned (2048 Mbytes)
src/base/statistics.hh:279: warn: One of the stats is a legacy stat. Legacy stat is a stat that does not belong to any statistics::Group. Legacy stat is deprecated.
system.remote_gdb: Listening for connections on port 7000
src/sim/simulate.cc:194: info: Entering event queue @ 0.  Starting simulation...
1000000: Event_62: system.cpu progress event, total committed:69, progress insts committed: 69, IPC: 0000.069
2000000: Event_62: system.cpu progress event, total committed:202, progress insts committed: 133, IPC: 0000.133
3000000: Event_62: system.cpu progress event, total committed:305, progress insts committed: 103, IPC: 0000.103
4000000: Event_62: system.cpu progress event, total committed:361, progress insts committed: 56, IPC: 0000.056
5000000: Event_62: system.cpu progress event, total committed:408, progress insts committed: 47, IPC: 0000.047
6000000: Event_62: system.cpu progress event, total committed:496, progress insts committed: 88, IPC: 0000.088
7000000: Event_62: system.cpu progress event, total committed:579, progress insts committed: 83, IPC: 0000.083
src/sim/syscall_emul.cc:85: warn: ignoring syscall set_robust_list(...)
      (further warnings will be suppressed)
8000000: Event_62: system.cpu progress event, total committed:674, progress insts committed: 95, IPC: 0000.095
9000000: Event_62: system.cpu progress event, total committed:785, progress insts committed: 111, IPC: 0000.111
10000000: Event_62: system.cpu progress event, total committed:859, progress insts committed: 74, IPC: 0000.074
11000000: Event_62: system.cpu progress event, total committed:965, progress insts committed: 106, IPC: 0000.106
src/sim/syscall_emul.hh:1014: warn: readlink() called on '/proc/self/exe' may yield unexpected results in various settings.
      Returning '/home/xfalc/arq/TP4_EX4/bench/bin/bf'
src/sim/mem_state.cc:443: info: Increasing stack size by one page.
12000000: Event_62: system.cpu progress event, total committed:1053, progress insts committed: 88, IPC: 0000.088
13000000: Event_62: system.cpu progress event, total committed:1116, progress insts committed: 63, IPC: 0000.063
14000000: Event_62: system.cpu progress event, total committed:1302, progress insts committed: 186, IPC: 0000.186
15000000: Event_62: system.cpu progress event, total committed:1486, progress insts committed: 184, IPC: 0000.184
16000000: Event_62: system.cpu progress event, total committed:1626, progress insts committed: 140, IPC: 00000.14
17000000: Event_62: system.cpu progress event, total committed:1741, progress insts committed: 115, IPC: 0000.115
18000000: Event_62: system.cpu progress event, total committed:1857, progress insts committed: 116, IPC: 0000.116
19000000: Event_62: system.cpu progress event, total committed:1968, progress insts committed: 111, IPC: 0000.111
20000000: Event_62: system.cpu progress event, total committed:2043, progress insts committed: 75, IPC: 0000.075
21000000: Event_62: system.cpu progress event, total committed:2099, progress insts committed: 56, IPC: 0000.056
22000000: Event_62: system.cpu progress event, total committed:2184, progress insts committed: 85, IPC: 0000.085
23000000: Event_62: system.cpu progress event, total committed:2259, progress insts committed: 75, IPC: 0000.075
24000000: Event_62: system.cpu progress event, total committed:2356, progress insts committed: 97, IPC: 0000.097
25000000: Event_62: system.cpu progress event, total committed:2464, progress insts committed: 108, IPC: 0000.108
26000000: Event_62: system.cpu progress event, total committed:2592, progress insts committed: 128, IPC: 0000.128
27000000: Event_62: system.cpu progress event, total committed:2780, progress insts committed: 188, IPC: 0000.188
28000000: Event_62: system.cpu progress event, total committed:2900, progress insts committed: 120, IPC: 00000.12
29000000: Event_62: system.cpu progress event, total committed:2987, progress insts committed: 87, IPC: 0000.087
30000000: Event_62: system.cpu progress event, total committed:3194, progress insts committed: 207, IPC: 0000.207
31000000: Event_62: system.cpu progress event, total committed:3455, progress insts committed: 261, IPC: 0000.261
32000000: Event_62: system.cpu progress event, total committed:3603, progress insts committed: 148, IPC: 0000.148
33000000: Event_62: system.cpu progress event, total committed:3732, progress insts committed: 129, IPC: 0000.129
34000000: Event_62: system.cpu progress event, total committed:3961, progress insts committed: 229, IPC: 0000.229
35000000: Event_62: system.cpu progress event, total committed:4029, progress insts committed: 68, IPC: 0000.068
36000000: Event_62: system.cpu progress event, total committed:4159, progress insts committed: 130, IPC: 00000.13
37000000: Event_62: system.cpu progress event, total committed:4415, progress insts committed: 256, IPC: 0000.256
38000000: Event_62: system.cpu progress event, total committed:4597, progress insts committed: 182, IPC: 0000.182
src/sim/syscall_emul.cc:74: warn: ignoring syscall mprotect(...)
39000000: Event_62: system.cpu progress event, total committed:4689, progress insts committed: 92, IPC: 0000.092
40000000: Event_62: system.cpu progress event, total committed:4826, progress insts committed: 137, IPC: 0000.137
41000000: Event_62: system.cpu progress event, total committed:4898, progress insts committed: 72, IPC: 0000.072
42000000: Event_62: system.cpu progress event, total committed:5004, progress insts committed: 106, IPC: 0000.106
43000000: Event_62: system.cpu progress event, total committed:5075, progress insts committed: 71, IPC: 0000.071
44000000: Event_62: system.cpu progress event, total committed:5272, progress insts committed: 197, IPC: 0000.197
45000000: Event_62: system.cpu progress event, total committed:5361, progress insts committed: 89, IPC: 0000.089
46000000: Event_62: system.cpu progress event, total committed:5492, progress insts committed: 131, IPC: 0000.131
47000000: Event_62: system.cpu progress event, total committed:5546, progress insts committed: 54, IPC: 0000.054
48000000: Event_62: system.cpu progress event, total committed:5658, progress insts committed: 112, IPC: 0000.112
49000000: Event_62: system.cpu progress event, total committed:5897, progress insts committed: 239, IPC: 0000.239
50000000: Event_62: system.cpu progress event, total committed:6125, progress insts committed: 228, IPC: 0000.228
51000000: Event_62: system.cpu progress event, total committed:6385, progress insts committed: 260, IPC: 00000.26
52000000: Event_62: system.cpu progress event, total committed:6616, progress insts committed: 231, IPC: 0000.231
53000000: Event_62: system.cpu progress event, total committed:6862, progress insts committed: 246, IPC: 0000.246
54000000: Event_62: system.cpu progress event, total committed:7126, progress insts committed: 264, IPC: 0000.264
55000000: Event_62: system.cpu progress event, total committed:7366, progress insts committed: 240, IPC: 00000.24
56000000: Event_62: system.cpu progress event, total committed:7612, progress insts committed: 246, IPC: 0000.246
57000000: Event_62: system.cpu progress event, total committed:7880, progress insts committed: 268, IPC: 0000.268
58000000: Event_62: system.cpu progress event, total committed:8146, progress insts committed: 266, IPC: 0000.266
59000000: Event_62: system.cpu progress event, total committed:8399, progress insts committed: 253, IPC: 0000.253
60000000: Event_62: system.cpu progress event, total committed:8639, progress insts committed: 240, IPC: 00000.24
61000000: Event_62: system.cpu progress event, total committed:8906, progress insts committed: 267, IPC: 0000.267
62000000: Event_62: system.cpu progress event, total committed:9194, progress insts committed: 288, IPC: 0000.288
63000000: Event_62: system.cpu progress event, total committed:9457, progress insts committed: 263, IPC: 0000.263
64000000: Event_62: system.cpu progress event, total committed:9702, progress insts committed: 245, IPC: 0000.245
65000000: Event_62: system.cpu progress event, total committed:9959, progress insts committed: 257, IPC: 0000.257
66000000: Event_62: system.cpu progress event, total committed:10216, progress insts committed: 257, IPC: 0000.257
67000000: Event_62: system.cpu progress event, total committed:10457, progress insts committed: 241, IPC: 0000.241
68000000: Event_62: system.cpu progress event, total committed:10723, progress insts committed: 266, IPC: 0000.266
69000000: Event_62: system.cpu progress event, total committed:10977, progress insts committed: 254, IPC: 0000.254
70000000: Event_62: system.cpu progress event, total committed:11248, progress insts committed: 271, IPC: 0000.271
71000000: Event_62: system.cpu progress event, total committed:11510, progress insts committed: 262, IPC: 0000.262
72000000: Event_62: system.cpu progress event, total committed:11750, progress insts committed: 240, IPC: 00000.24
73000000: Event_62: system.cpu progress event, total committed:12018, progress insts committed: 268, IPC: 0000.268
74000000: Event_62: system.cpu progress event, total committed:12263, progress insts committed: 245, IPC: 0000.245
75000000: Event_62: system.cpu progress event, total committed:12508, progress insts committed: 245, IPC: 0000.245
76000000: Event_62: system.cpu progress event, total committed:12751, progress insts committed: 243, IPC: 0000.243
77000000: Event_62: system.cpu progress event, total committed:12995, progress insts committed: 244, IPC: 0000.244
78000000: Event_62: system.cpu progress event, total committed:13262, progress insts committed: 267, IPC: 0000.267
79000000: Event_62: system.cpu progress event, total committed:13521, progress insts committed: 259, IPC: 0000.259
80000000: Event_62: system.cpu progress event, total committed:13805, progress insts committed: 284, IPC: 0000.284
81000000: Event_62: system.cpu progress event, total committed:14050, progress insts committed: 245, IPC: 0000.245
82000000: Event_62: system.cpu progress event, total committed:14318, progress insts committed: 268, IPC: 0000.268
83000000: Event_62: system.cpu progress event, total committed:14563, progress insts committed: 245, IPC: 0000.245
84000000: Event_62: system.cpu progress event, total committed:14803, progress insts committed: 240, IPC: 00000.24
85000000: Event_62: system.cpu progress event, total committed:15049, progress insts committed: 246, IPC: 0000.246
86000000: Event_62: system.cpu progress event, total committed:15246, progress insts committed: 197, IPC: 0000.197
87000000: Event_62: system.cpu progress event, total committed:15514, progress insts committed: 268, IPC: 0000.268
88000000: Event_62: system.cpu progress event, total committed:15763, progress insts committed: 249, IPC: 0000.249
89000000: Event_62: system.cpu progress event, total committed:16028, progress insts committed: 265, IPC: 0000.265
90000000: Event_62: system.cpu progress event, total committed:16272, progress insts committed: 244, IPC: 0000.244
91000000: Event_62: system.cpu progress event, total committed:16541, progress insts committed: 269, IPC: 0000.269
92000000: Event_62: system.cpu progress event, total committed:16809, progress insts committed: 268, IPC: 0000.268
93000000: Event_62: system.cpu progress event, total committed:17073, progress insts committed: 264, IPC: 0000.264
94000000: Event_62: system.cpu progress event, total committed:17271, progress insts committed: 198, IPC: 0000.198
95000000: Event_62: system.cpu progress event, total committed:17517, progress insts committed: 246, IPC: 0000.246
96000000: Event_62: system.cpu progress event, total committed:17762, progress insts committed: 245, IPC: 0000.245
97000000: Event_62: system.cpu progress event, total committed:18007, progress insts committed: 245, IPC: 0000.245
98000000: Event_62: system.cpu progress event, total committed:18275, progress insts committed: 268, IPC: 0000.268
99000000: Event_62: system.cpu progress event, total committed:18523, progress insts committed: 248, IPC: 0000.248
100000000: Event_62: system.cpu progress event, total committed:18785, progress insts committed: 262, IPC: 0000.262
101000000: Event_62: system.cpu progress event, total committed:19030, progress insts committed: 245, IPC: 0000.245
102000000: Event_62: system.cpu progress event, total committed:19243, progress insts committed: 213, IPC: 0000.213
103000000: Event_62: system.cpu progress event, total committed:19506, progress insts committed: 263, IPC: 0000.263
104000000: Event_62: system.cpu progress event, total committed:19775, progress insts committed: 269, IPC: 0000.269
105000000: Event_62: system.cpu progress event, total committed:20044, progress insts committed: 269, IPC: 0000.269
106000000: Event_62: system.cpu progress event, total committed:20285, progress insts committed: 241, IPC: 0000.241
107000000: Event_62: system.cpu progress event, total committed:20533, progress insts committed: 248, IPC: 0000.248
108000000: Event_62: system.cpu progress event, total committed:20774, progress insts committed: 241, IPC: 0000.241
109000000: Event_62: system.cpu progress event, total committed:21020, progress insts committed: 246, IPC: 0000.246
110000000: Event_62: system.cpu progress event, total committed:21223, progress insts committed: 203, IPC: 0000.203
111000000: Event_62: system.cpu progress event, total committed:21490, progress insts committed: 267, IPC: 0000.267
112000000: Event_62: system.cpu progress event, total committed:21759, progress insts committed: 269, IPC: 0000.269
113000000: Event_62: system.cpu progress event, total committed:22005, progress insts committed: 246, IPC: 0000.246
114000000: Event_62: system.cpu progress event, total committed:22249, progress insts committed: 244, IPC: 0000.244
115000000: Event_62: system.cpu progress event, total committed:22518, progress insts committed: 269, IPC: 0000.269
116000000: Event_62: system.cpu progress event, total committed:22759, progress insts committed: 241, IPC: 0000.241
117000000: Event_62: system.cpu progress event, total committed:23027, progress insts committed: 268, IPC: 0000.268
118000000: Event_62: system.cpu progress event, total committed:23291, progress insts committed: 264, IPC: 0000.264
119000000: Event_62: system.cpu progress event, total committed:23536, progress insts committed: 245, IPC: 0000.245
120000000: Event_62: system.cpu progress event, total committed:23803, progress insts committed: 267, IPC: 0000.267
121000000: Event_62: system.cpu progress event, total committed:24049, progress insts committed: 246, IPC: 0000.246
122000000: Event_62: system.cpu progress event, total committed:24318, progress insts committed: 269, IPC: 0000.269
123000000: Event_62: system.cpu progress event, total committed:24587, progress insts committed: 269, IPC: 0000.269
124000000: Event_62: system.cpu progress event, total committed:24855, progress insts committed: 268, IPC: 0000.268
125000000: Event_62: system.cpu progress event, total committed:25119, progress insts committed: 264, IPC: 0000.264
126000000: Event_62: system.cpu progress event, total committed:25360, progress insts committed: 241, IPC: 0000.241
127000000: Event_62: system.cpu progress event, total committed:25605, progress insts committed: 245, IPC: 0000.245
128000000: Event_62: system.cpu progress event, total committed:25873, progress insts committed: 268, IPC: 0000.268
129000000: Event_62: system.cpu progress event, total committed:26118, progress insts committed: 245, IPC: 0000.245
130000000: Event_62: system.cpu progress event, total committed:26387, progress insts committed: 269, IPC: 0000.269
131000000: Event_62: system.cpu progress event, total committed:26633, progress insts committed: 246, IPC: 0000.246
132000000: Event_62: system.cpu progress event, total committed:26885, progress insts committed: 252, IPC: 0000.252
133000000: Event_62: system.cpu progress event, total committed:27095, progress insts committed: 210, IPC: 00000.21
134000000: Event_62: system.cpu progress event, total committed:27316, progress insts committed: 221, IPC: 0000.221
135000000: Event_62: system.cpu progress event, total committed:27562, progress insts committed: 246, IPC: 0000.246
136000000: Event_62: system.cpu progress event, total committed:27831, progress insts committed: 269, IPC: 0000.269
137000000: Event_62: system.cpu progress event, total committed:28099, progress insts committed: 268, IPC: 0000.268
138000000: Event_62: system.cpu progress event, total committed:28322, progress insts committed: 223, IPC: 0000.223
139000000: Event_62: system.cpu progress event, total committed:28585, progress insts committed: 263, IPC: 0000.263
140000000: Event_62: system.cpu progress event, total committed:28843, progress insts committed: 258, IPC: 0000.258
141000000: Event_62: system.cpu progress event, total committed:29083, progress insts committed: 240, IPC: 00000.24
142000000: Event_62: system.cpu progress event, total committed:29312, progress insts committed: 229, IPC: 0000.229
143000000: Event_62: system.cpu progress event, total committed:29563, progress insts committed: 251, IPC: 0000.251
144000000: Event_62: system.cpu progress event, total committed:29803, progress insts committed: 240, IPC: 00000.24
145000000: Event_62: system.cpu progress event, total committed:30047, progress insts committed: 244, IPC: 0000.244
146000000: Event_62: system.cpu progress event, total committed:30283, progress insts committed: 236, IPC: 0000.236
147000000: Event_62: system.cpu progress event, total committed:30523, progress insts committed: 240, IPC: 00000.24
148000000: Event_62: system.cpu progress event, total committed:30780, progress insts committed: 257, IPC: 0000.257
149000000: Event_62: system.cpu progress event, total committed:31044, progress insts committed: 264, IPC: 0000.264
150000000: Event_62: system.cpu progress event, total committed:31269, progress insts committed: 225, IPC: 0000.225
151000000: Event_62: system.cpu progress event, total committed:31511, progress insts committed: 242, IPC: 0000.242
152000000: Event_62: system.cpu progress event, total committed:31756, progress insts committed: 245, IPC: 0000.245
153000000: Event_62: system.cpu progress event, total committed:32002, progress insts committed: 246, IPC: 0000.246
154000000: Event_62: system.cpu progress event, total committed:32266, progress insts committed: 264, IPC: 0000.264
155000000: Event_62: system.cpu progress event, total committed:32534, progress insts committed: 268, IPC: 0000.268
156000000: Event_62: system.cpu progress event, total committed:32780, progress insts committed: 246, IPC: 0000.246
157000000: Event_62: system.cpu progress event, total committed:33021, progress insts committed: 241, IPC: 0000.241
158000000: Event_62: system.cpu progress event, total committed:33266, progress insts committed: 245, IPC: 0000.245
159000000: Event_62: system.cpu progress event, total committed:33523, progress insts committed: 257, IPC: 0000.257
160000000: Event_62: system.cpu progress event, total committed:33763, progress insts committed: 240, IPC: 00000.24
161000000: Event_62: system.cpu progress event, total committed:34025, progress insts committed: 262, IPC: 0000.262
162000000: Event_62: system.cpu progress event, total committed:34294, progress insts committed: 269, IPC: 0000.269
163000000: Event_62: system.cpu progress event, total committed:34535, progress insts committed: 241, IPC: 0000.241
164000000: Event_62: system.cpu progress event, total committed:34767, progress insts committed: 232, IPC: 0000.232
165000000: Event_62: system.cpu progress event, total committed:35013, progress insts committed: 246, IPC: 0000.246
166000000: Event_62: system.cpu progress event, total committed:35282, progress insts committed: 269, IPC: 0000.269
167000000: Event_62: system.cpu progress event, total committed:35526, progress insts committed: 244, IPC: 0000.244
168000000: Event_62: system.cpu progress event, total committed:35771, progress insts committed: 245, IPC: 0000.245
169000000: Event_62: system.cpu progress event, total committed:36040, progress insts committed: 269, IPC: 0000.269
170000000: Event_62: system.cpu progress event, total committed:36283, progress insts committed: 243, IPC: 0000.243
171000000: Event_62: system.cpu progress event, total committed:36525, progress insts committed: 242, IPC: 0000.242
172000000: Event_62: system.cpu progress event, total committed:36754, progress insts committed: 229, IPC: 0000.229
173000000: Event_62: system.cpu progress event, total committed:37003, progress insts committed: 249, IPC: 0000.249
174000000: Event_62: system.cpu progress event, total committed:37268, progress insts committed: 265, IPC: 0000.265
175000000: Event_62: system.cpu progress event, total committed:37513, progress insts committed: 245, IPC: 0000.245
176000000: Event_62: system.cpu progress event, total committed:37781, progress insts committed: 268, IPC: 0000.268
177000000: Event_62: system.cpu progress event, total committed:38049, progress insts committed: 268, IPC: 0000.268
178000000: Event_62: system.cpu progress event, total committed:38318, progress insts committed: 269, IPC: 0000.269
179000000: Event_62: system.cpu progress event, total committed:38559, progress insts committed: 241, IPC: 0000.241
180000000: Event_62: system.cpu progress event, total committed:38803, progress insts committed: 244, IPC: 0000.244
181000000: Event_62: system.cpu progress event, total committed:39045, progress insts committed: 242, IPC: 0000.242
182000000: Event_62: system.cpu progress event, total committed:39291, progress insts committed: 246, IPC: 0000.246
183000000: Event_62: system.cpu progress event, total committed:39559, progress insts committed: 268, IPC: 0000.268
184000000: Event_62: system.cpu progress event, total committed:39804, progress insts committed: 245, IPC: 0000.245
185000000: Event_62: system.cpu progress event, total committed:40050, progress insts committed: 246, IPC: 0000.246
186000000: Event_62: system.cpu progress event, total committed:40314, progress insts committed: 264, IPC: 0000.264
187000000: Event_62: system.cpu progress event, total committed:40582, progress insts committed: 268, IPC: 0000.268
188000000: Event_62: system.cpu progress event, total committed:40826, progress insts committed: 244, IPC: 0000.244
189000000: Event_62: system.cpu progress event, total committed:41070, progress insts committed: 244, IPC: 0000.244
190000000: Event_62: system.cpu progress event, total committed:41311, progress insts committed: 241, IPC: 0000.241
191000000: Event_62: system.cpu progress event, total committed:41563, progress insts committed: 252, IPC: 0000.252
192000000: Event_62: system.cpu progress event, total committed:41803, progress insts committed: 240, IPC: 00000.24
193000000: Event_62: system.cpu progress event, total committed:42047, progress insts committed: 244, IPC: 0000.244
194000000: Event_62: system.cpu progress event, total committed:42293, progress insts committed: 246, IPC: 0000.246
195000000: Event_62: system.cpu progress event, total committed:42523, progress insts committed: 230, IPC: 00000.23
196000000: Event_62: system.cpu progress event, total committed:42781, progress insts committed: 258, IPC: 0000.258
197000000: Event_62: system.cpu progress event, total committed:43049, progress insts committed: 268, IPC: 0000.268
198000000: Event_62: system.cpu progress event, total committed:43318, progress insts committed: 269, IPC: 0000.269
199000000: Event_62: system.cpu progress event, total committed:43586, progress insts committed: 268, IPC: 0000.268
200000000: Event_62: system.cpu progress event, total committed:43831, progress insts committed: 245, IPC: 0000.245
201000000: Event_62: system.cpu progress event, total committed:44076, progress insts committed: 245, IPC: 0000.245
202000000: Event_62: system.cpu progress event, total committed:44322, progress insts committed: 246, IPC: 0000.246
203000000: Event_62: system.cpu progress event, total committed:44581, progress insts committed: 259, IPC: 0000.259
204000000: Event_62: system.cpu progress event, total committed:44849, progress insts committed: 268, IPC: 0000.268
205000000: Event_62: system.cpu progress event, total committed:45119, progress insts committed: 270, IPC: 00000.27
206000000: Event_62: system.cpu progress event, total committed:45387, progress insts committed: 268, IPC: 0000.268
207000000: Event_62: system.cpu progress event, total committed:45642, progress insts committed: 255, IPC: 0000.255
208000000: Event_62: system.cpu progress event, total committed:45882, progress insts committed: 240, IPC: 00000.24
209000000: Event_62: system.cpu progress event, total committed:46122, progress insts committed: 240, IPC: 00000.24
210000000: Event_62: system.cpu progress event, total committed:46362, progress insts committed: 240, IPC: 00000.24
211000000: Event_62: system.cpu progress event, total committed:46591, progress insts committed: 229, IPC: 0000.229
212000000: Event_62: system.cpu progress event, total committed:46837, progress insts committed: 246, IPC: 0000.246
213000000: Event_62: system.cpu progress event, total committed:47082, progress insts committed: 245, IPC: 0000.245
214000000: Event_62: system.cpu progress event, total committed:47350, progress insts committed: 268, IPC: 0000.268
215000000: Event_62: system.cpu progress event, total committed:47620, progress insts committed: 270, IPC: 00000.27
216000000: Event_62: system.cpu progress event, total committed:47865, progress insts committed: 245, IPC: 0000.245
217000000: Event_62: system.cpu progress event, total committed:48127, progress insts committed: 262, IPC: 0000.262
218000000: Event_62: system.cpu progress event, total committed:48364, progress insts committed: 237, IPC: 0000.237
219000000: Event_62: system.cpu progress event, total committed:48579, progress insts committed: 215, IPC: 0000.215
220000000: Event_62: system.cpu progress event, total committed:48824, progress insts committed: 245, IPC: 0000.245
221000000: Event_62: system.cpu progress event, total committed:49092, progress insts committed: 268, IPC: 0000.268
222000000: Event_62: system.cpu progress event, total committed:49337, progress insts committed: 245, IPC: 0000.245
223000000: Event_62: system.cpu progress event, total committed:49602, progress insts committed: 265, IPC: 0000.265
224000000: Event_62: system.cpu progress event, total committed:49844, progress insts committed: 242, IPC: 0000.242
225000000: Event_62: system.cpu progress event, total committed:50092, progress insts committed: 248, IPC: 0000.248
226000000: Event_62: system.cpu progress event, total committed:50322, progress insts committed: 230, IPC: 00000.23
227000000: Event_62: system.cpu progress event, total committed:50562, progress insts committed: 240, IPC: 00000.24
228000000: Event_62: system.cpu progress event, total committed:50811, progress insts committed: 249, IPC: 0000.249
229000000: Event_62: system.cpu progress event, total committed:51079, progress insts committed: 268, IPC: 0000.268
230000000: Event_62: system.cpu progress event, total committed:51348, progress insts committed: 269, IPC: 0000.269
231000000: Event_62: system.cpu progress event, total committed:51608, progress insts committed: 260, IPC: 00000.26
232000000: Event_62: system.cpu progress event, total committed:51853, progress insts committed: 245, IPC: 0000.245
233000000: Event_62: system.cpu progress event, total committed:52120, progress insts committed: 267, IPC: 0000.267
234000000: Event_62: system.cpu progress event, total committed:52360, progress insts committed: 240, IPC: 00000.24
235000000: Event_62: system.cpu progress event, total committed:52600, progress insts committed: 240, IPC: 00000.24
236000000: Event_62: system.cpu progress event, total committed:52848, progress insts committed: 248, IPC: 0000.248
237000000: Event_62: system.cpu progress event, total committed:53094, progress insts committed: 246, IPC: 0000.246
238000000: Event_62: system.cpu progress event, total committed:53363, progress insts committed: 269, IPC: 0000.269
239000000: Event_62: system.cpu progress event, total committed:53631, progress insts committed: 268, IPC: 0000.268
240000000: Event_62: system.cpu progress event, total committed:53877, progress insts committed: 246, IPC: 0000.246
241000000: Event_62: system.cpu progress event, total committed:54118, progress insts committed: 241, IPC: 0000.241
242000000: Event_62: system.cpu progress event, total committed:54367, progress insts committed: 249, IPC: 0000.249
243000000: Event_62: system.cpu progress event, total committed:54590, progress insts committed: 223, IPC: 0000.223
244000000: Event_62: system.cpu progress event, total committed:54836, progress insts committed: 246, IPC: 0000.246
245000000: Event_62: system.cpu progress event, total committed:55081, progress insts committed: 245, IPC: 0000.245
246000000: Event_62: system.cpu progress event, total committed:55303, progress insts committed: 222, IPC: 0000.222
247000000: Event_62: system.cpu progress event, total committed:55566, progress insts committed: 263, IPC: 0000.263
248000000: Event_62: system.cpu progress event, total committed:55828, progress insts committed: 262, IPC: 0000.262
249000000: Event_62: system.cpu progress event, total committed:56110, progress insts committed: 282, IPC: 0000.282
250000000: Event_62: system.cpu progress event, total committed:56363, progress insts committed: 253, IPC: 0000.253
251000000: Event_62: system.cpu progress event, total committed:56634, progress insts committed: 271, IPC: 0000.271
252000000: Event_62: system.cpu progress event, total committed:56880, progress insts committed: 246, IPC: 0000.246
253000000: Event_62: system.cpu progress event, total committed:57126, progress insts committed: 246, IPC: 0000.246
254000000: Event_62: system.cpu progress event, total committed:57371, progress insts committed: 245, IPC: 0000.245
255000000: Event_62: system.cpu progress event, total committed:57614, progress insts committed: 243, IPC: 0000.243
256000000: Event_62: system.cpu progress event, total committed:57834, progress insts committed: 220, IPC: 00000.22
257000000: Event_62: system.cpu progress event, total committed:58079, progress insts committed: 245, IPC: 0000.245
258000000: Event_62: system.cpu progress event, total committed:58308, progress insts committed: 229, IPC: 0000.229
259000000: Event_62: system.cpu progress event, total committed:58554, progress insts committed: 246, IPC: 0000.246
260000000: Event_62: system.cpu progress event, total committed:58799, progress insts committed: 245, IPC: 0000.245
261000000: Event_62: system.cpu progress event, total committed:59022, progress insts committed: 223, IPC: 0000.223
262000000: Event_62: system.cpu progress event, total committed:59290, progress insts committed: 268, IPC: 0000.268
263000000: Event_62: system.cpu progress event, total committed:59531, progress insts committed: 241, IPC: 0000.241
264000000: Event_62: system.cpu progress event, total committed:59817, progress insts committed: 286, IPC: 0000.286
265000000: Event_62: system.cpu progress event, total committed:60059, progress insts committed: 242, IPC: 0000.242
266000000: Event_62: system.cpu progress event, total committed:60304, progress insts committed: 245, IPC: 0000.245
267000000: Event_62: system.cpu progress event, total committed:60569, progress insts committed: 265, IPC: 0000.265
268000000: Event_62: system.cpu progress event, total committed:60813, progress insts committed: 244, IPC: 0000.244
269000000: Event_62: system.cpu progress event, total committed:61059, progress insts committed: 246, IPC: 0000.246
270000000: Event_62: system.cpu progress event, total committed:61305, progress insts committed: 246, IPC: 0000.246
271000000: Event_62: system.cpu progress event, total committed:61546, progress insts committed: 241, IPC: 0000.241
272000000: Event_62: system.cpu progress event, total committed:61814, progress insts committed: 268, IPC: 0000.268
273000000: Event_62: system.cpu progress event, total committed:62026, progress insts committed: 212, IPC: 0000.212
274000000: Event_62: system.cpu progress event, total committed:62290, progress insts committed: 264, IPC: 0000.264
275000000: Event_62: system.cpu progress event, total committed:62558, progress insts committed: 268, IPC: 0000.268
276000000: Event_62: system.cpu progress event, total committed:62824, progress insts committed: 266, IPC: 0000.266
277000000: Event_62: system.cpu progress event, total committed:63102, progress insts committed: 278, IPC: 0000.278
278000000: Event_62: system.cpu progress event, total committed:63353, progress insts committed: 251, IPC: 0000.251
279000000: Event_62: system.cpu progress event, total committed:63599, progress insts committed: 246, IPC: 0000.246
280000000: Event_62: system.cpu progress event, total committed:63845, progress insts committed: 246, IPC: 0000.246
281000000: Event_62: system.cpu progress event, total committed:64109, progress insts committed: 264, IPC: 0000.264
282000000: Event_62: system.cpu progress event, total committed:64332, progress insts committed: 223, IPC: 0000.223
283000000: Event_62: system.cpu progress event, total committed:64599, progress insts committed: 267, IPC: 0000.267
284000000: Event_62: system.cpu progress event, total committed:64867, progress insts committed: 268, IPC: 0000.268
285000000: Event_62: system.cpu progress event, total committed:65116, progress insts committed: 249, IPC: 0000.249
286000000: Event_62: system.cpu progress event, total committed:65358, progress insts committed: 242, IPC: 0000.242
287000000: Event_62: system.cpu progress event, total committed:65622, progress insts committed: 264, IPC: 0000.264
288000000: Event_62: system.cpu progress event, total committed:65867, progress insts committed: 245, IPC: 0000.245
289000000: Event_62: system.cpu progress event, total committed:66086, progress insts committed: 219, IPC: 0000.219
290000000: Event_62: system.cpu progress event, total committed:66354, progress insts committed: 268, IPC: 0000.268
291000000: Event_62: system.cpu progress event, total committed:66623, progress insts committed: 269, IPC: 0000.269
292000000: Event_62: system.cpu progress event, total committed:66891, progress insts committed: 268, IPC: 0000.268
293000000: Event_62: system.cpu progress event, total committed:67137, progress insts committed: 246, IPC: 0000.246
294000000: Event_62: system.cpu progress event, total committed:67396, progress insts committed: 259, IPC: 0000.259
295000000: Event_62: system.cpu progress event, total committed:67645, progress insts committed: 249, IPC: 0000.249
296000000: Event_62: system.cpu progress event, total committed:67913, progress insts committed: 268, IPC: 0000.268
297000000: Event_62: system.cpu progress event, total committed:68178, progress insts committed: 265, IPC: 0000.265
298000000: Event_62: system.cpu progress event, total committed:68469, progress insts committed: 291, IPC: 0000.291
299000000: Event_62: system.cpu progress event, total committed:68714, progress insts committed: 245, IPC: 0000.245
300000000: Event_62: system.cpu progress event, total committed:68959, progress insts committed: 245, IPC: 0000.245
301000000: Event_62: system.cpu progress event, total committed:69204, progress insts committed: 245, IPC: 0000.245
302000000: Event_62: system.cpu progress event, total committed:69473, progress insts committed: 269, IPC: 0000.269
303000000: Event_62: system.cpu progress event, total committed:69741, progress insts committed: 268, IPC: 0000.268
304000000: Event_62: system.cpu progress event, total committed:69918, progress insts committed: 177, IPC: 0000.177
305000000: Event_62: system.cpu progress event, total committed:70183, progress insts committed: 265, IPC: 0000.265
306000000: Event_62: system.cpu progress event, total committed:70422, progress insts committed: 239, IPC: 0000.239
307000000: Event_62: system.cpu progress event, total committed:70662, progress insts committed: 240, IPC: 00000.24
308000000: Event_62: system.cpu progress event, total committed:70902, progress insts committed: 240, IPC: 00000.24
309000000: Event_62: system.cpu progress event, total committed:71165, progress insts committed: 263, IPC: 0000.263
310000000: Event_62: system.cpu progress event, total committed:71429, progress insts committed: 264, IPC: 0000.264
311000000: Event_62: system.cpu progress event, total committed:71678, progress insts committed: 249, IPC: 0000.249
312000000: Event_62: system.cpu progress event, total committed:71899, progress insts committed: 221, IPC: 0000.221
313000000: Event_62: system.cpu progress event, total committed:72167, progress insts committed: 268, IPC: 0000.268
314000000: Event_62: system.cpu progress event, total committed:72413, progress insts committed: 246, IPC: 0000.246
315000000: Event_62: system.cpu progress event, total committed:72659, progress insts committed: 246, IPC: 0000.246
316000000: Event_62: system.cpu progress event, total committed:72916, progress insts committed: 257, IPC: 0000.257
317000000: Event_62: system.cpu progress event, total committed:73149, progress insts committed: 233, IPC: 0000.233
318000000: Event_62: system.cpu progress event, total committed:73396, progress insts committed: 247, IPC: 0000.247
319000000: Event_62: system.cpu progress event, total committed:73636, progress insts committed: 240, IPC: 00000.24
320000000: Event_62: system.cpu progress event, total committed:73803, progress insts committed: 167, IPC: 0000.167
321000000: Event_62: system.cpu progress event, total committed:74048, progress insts committed: 245, IPC: 0000.245
322000000: Event_62: system.cpu progress event, total committed:74294, progress insts committed: 246, IPC: 0000.246
323000000: Event_62: system.cpu progress event, total committed:74538, progress insts committed: 244, IPC: 0000.244
324000000: Event_62: system.cpu progress event, total committed:74806, progress insts committed: 268, IPC: 0000.268
325000000: Event_62: system.cpu progress event, total committed:75047, progress insts committed: 241, IPC: 0000.241
326000000: Event_62: system.cpu progress event, total committed:75293, progress insts committed: 246, IPC: 0000.246
327000000: Event_62: system.cpu progress event, total committed:75539, progress insts committed: 246, IPC: 0000.246
328000000: Event_62: system.cpu progress event, total committed:75707, progress insts committed: 168, IPC: 0000.168
329000000: Event_62: system.cpu progress event, total committed:75976, progress insts committed: 269, IPC: 0000.269
330000000: Event_62: system.cpu progress event, total committed:76239, progress insts committed: 263, IPC: 0000.263
331000000: Event_62: system.cpu progress event, total committed:76485, progress insts committed: 246, IPC: 0000.246
332000000: Event_62: system.cpu progress event, total committed:76753, progress insts committed: 268, IPC: 0000.268
333000000: Event_62: system.cpu progress event, total committed:76998, progress insts committed: 245, IPC: 0000.245
334000000: Event_62: system.cpu progress event, total committed:77262, progress insts committed: 264, IPC: 0000.264
335000000: Event_62: system.cpu progress event, total committed:77476, progress insts committed: 214, IPC: 0000.214
336000000: Event_62: system.cpu progress event, total committed:77673, progress insts committed: 197, IPC: 0000.197
337000000: Event_62: system.cpu progress event, total committed:77941, progress insts committed: 268, IPC: 0000.268
338000000: Event_62: system.cpu progress event, total committed:78185, progress insts committed: 244, IPC: 0000.244
339000000: Event_62: system.cpu progress event, total committed:78436, progress insts committed: 251, IPC: 0000.251
340000000: Event_62: system.cpu progress event, total committed:78676, progress insts committed: 240, IPC: 00000.24
341000000: Event_62: system.cpu progress event, total committed:78941, progress insts committed: 265, IPC: 0000.265
342000000: Event_62: system.cpu progress event, total committed:79185, progress insts committed: 244, IPC: 0000.244
343000000: Event_62: system.cpu progress event, total committed:79414, progress insts committed: 229, IPC: 0000.229
344000000: Event_62: system.cpu progress event, total committed:79659, progress insts committed: 245, IPC: 0000.245
345000000: Event_62: system.cpu progress event, total committed:79904, progress insts committed: 245, IPC: 0000.245
346000000: Event_62: system.cpu progress event, total committed:80142, progress insts committed: 238, IPC: 0000.238
347000000: Event_62: system.cpu progress event, total committed:80382, progress insts committed: 240, IPC: 00000.24
348000000: Event_62: system.cpu progress event, total committed:80613, progress insts committed: 231, IPC: 0000.231
349000000: Event_62: system.cpu progress event, total committed:80881, progress insts committed: 268, IPC: 0000.268
350000000: Event_62: system.cpu progress event, total committed:81127, progress insts committed: 246, IPC: 0000.246
351000000: Event_62: system.cpu progress event, total committed:81391, progress insts committed: 264, IPC: 0000.264
352000000: Event_62: system.cpu progress event, total committed:81614, progress insts committed: 223, IPC: 0000.223
353000000: Event_62: system.cpu progress event, total committed:81881, progress insts committed: 267, IPC: 0000.267
354000000: Event_62: system.cpu progress event, total committed:82126, progress insts committed: 245, IPC: 0000.245
355000000: Event_62: system.cpu progress event, total committed:82395, progress insts committed: 269, IPC: 0000.269
356000000: Event_62: system.cpu progress event, total committed:82617, progress insts committed: 222, IPC: 0000.222
357000000: Event_62: system.cpu progress event, total committed:82876, progress insts committed: 259, IPC: 0000.259
358000000: Event_62: system.cpu progress event, total committed:83126, progress insts committed: 250, IPC: 00000.25
359000000: Event_62: system.cpu progress event, total committed:83365, progress insts committed: 239, IPC: 0000.239
360000000: Event_62: system.cpu progress event, total committed:83633, progress insts committed: 268, IPC: 0000.268
361000000: Event_62: system.cpu progress event, total committed:83901, progress insts committed: 268, IPC: 0000.268
362000000: Event_62: system.cpu progress event, total committed:84125, progress insts committed: 224, IPC: 0000.224
363000000: Event_62: system.cpu progress event, total committed:84393, progress insts committed: 268, IPC: 0000.268
364000000: Event_62: system.cpu progress event, total committed:84661, progress insts committed: 268, IPC: 0000.268
365000000: Event_62: system.cpu progress event, total committed:84916, progress insts committed: 255, IPC: 0000.255
366000000: Event_62: system.cpu progress event, total committed:85147, progress insts committed: 231, IPC: 0000.231
367000000: Event_62: system.cpu progress event, total committed:85353, progress insts committed: 206, IPC: 0000.206
368000000: Event_62: system.cpu progress event, total committed:85598, progress insts committed: 245, IPC: 0000.245
369000000: Event_62: system.cpu progress event, total committed:85843, progress insts committed: 245, IPC: 0000.245
370000000: Event_62: system.cpu progress event, total committed:86111, progress insts committed: 268, IPC: 0000.268
371000000: Event_62: system.cpu progress event, total committed:86356, progress insts committed: 245, IPC: 0000.245
372000000: Event_62: system.cpu progress event, total committed:86624, progress insts committed: 268, IPC: 0000.268
373000000: Event_62: system.cpu progress event, total committed:86865, progress insts committed: 241, IPC: 0000.241
374000000: Event_62: system.cpu progress event, total committed:87076, progress insts committed: 211, IPC: 0000.211
375000000: Event_62: system.cpu progress event, total committed:87316, progress insts committed: 240, IPC: 00000.24
376000000: Event_62: system.cpu progress event, total committed:87561, progress insts committed: 245, IPC: 0000.245
377000000: Event_62: system.cpu progress event, total committed:87822, progress insts committed: 261, IPC: 0000.261
378000000: Event_62: system.cpu progress event, total committed:88075, progress insts committed: 253, IPC: 0000.253
379000000: Event_62: system.cpu progress event, total committed:88343, progress insts committed: 268, IPC: 0000.268
380000000: Event_62: system.cpu progress event, total committed:88589, progress insts committed: 246, IPC: 0000.246
381000000: Event_62: system.cpu progress event, total committed:88853, progress insts committed: 264, IPC: 0000.264
382000000: Event_62: system.cpu progress event, total committed:89035, progress insts committed: 182, IPC: 0000.182
383000000: Event_62: system.cpu progress event, total committed:89281, progress insts committed: 246, IPC: 0000.246
384000000: Event_62: system.cpu progress event, total committed:89527, progress insts committed: 246, IPC: 0000.246
385000000: Event_62: system.cpu progress event, total committed:89772, progress insts committed: 245, IPC: 0000.245
386000000: Event_62: system.cpu progress event, total committed:90017, progress insts committed: 245, IPC: 0000.245
387000000: Event_62: system.cpu progress event, total committed:90285, progress insts committed: 268, IPC: 0000.268
388000000: Event_62: system.cpu progress event, total committed:90549, progress insts committed: 264, IPC: 0000.264
389000000: Event_62: system.cpu progress event, total committed:90771, progress insts committed: 222, IPC: 0000.222
390000000: Event_62: system.cpu progress event, total committed:90999, progress insts committed: 228, IPC: 0000.228
391000000: Event_62: system.cpu progress event, total committed:91222, progress insts committed: 223, IPC: 0000.223
392000000: Event_62: system.cpu progress event, total committed:91490, progress insts committed: 268, IPC: 0000.268
393000000: Event_62: system.cpu progress event, total committed:91756, progress insts committed: 266, IPC: 0000.266
394000000: Event_62: system.cpu progress event, total committed:91999, progress insts committed: 243, IPC: 0000.243
395000000: Event_62: system.cpu progress event, total committed:92244, progress insts committed: 245, IPC: 0000.245
396000000: Event_62: system.cpu progress event, total committed:92476, progress insts committed: 232, IPC: 0000.232
397000000: Event_62: system.cpu progress event, total committed:92736, progress insts committed: 260, IPC: 00000.26
398000000: Event_62: system.cpu progress event, total committed:92956, progress insts committed: 220, IPC: 00000.22
399000000: Event_62: system.cpu progress event, total committed:93222, progress insts committed: 266, IPC: 0000.266
400000000: Event_62: system.cpu progress event, total committed:93467, progress insts committed: 245, IPC: 0000.245
401000000: Event_62: system.cpu progress event, total committed:93736, progress insts committed: 269, IPC: 0000.269
402000000: Event_62: system.cpu progress event, total committed:94003, progress insts committed: 267, IPC: 0000.267
403000000: Event_62: system.cpu progress event, total committed:94249, progress insts committed: 246, IPC: 0000.246
404000000: Event_62: system.cpu progress event, total committed:94490, progress insts committed: 241, IPC: 0000.241
405000000: Event_62: system.cpu progress event, total committed:94756, progress insts committed: 266, IPC: 0000.266
406000000: Event_62: system.cpu progress event, total committed:94973, progress insts committed: 217, IPC: 0000.217
407000000: Event_62: system.cpu progress event, total committed:95219, progress insts committed: 246, IPC: 0000.246
408000000: Event_62: system.cpu progress event, total committed:95476, progress insts committed: 257, IPC: 0000.257
409000000: Event_62: system.cpu progress event, total committed:95718, progress insts committed: 242, IPC: 0000.242
410000000: Event_62: system.cpu progress event, total committed:95978, progress insts committed: 260, IPC: 00000.26
411000000: Event_62: system.cpu progress event, total committed:96223, progress insts committed: 245, IPC: 0000.245
412000000: Event_62: system.cpu progress event, total committed:96487, progress insts committed: 264, IPC: 0000.264
413000000: Event_62: system.cpu progress event, total committed:96676, progress insts committed: 189, IPC: 0000.189
414000000: Event_62: system.cpu progress event, total committed:96938, progress insts committed: 262, IPC: 0000.262
415000000: Event_62: system.cpu progress event, total committed:97184, progress insts committed: 246, IPC: 0000.246
416000000: Event_62: system.cpu progress event, total committed:97452, progress insts committed: 268, IPC: 0000.268
417000000: Event_62: system.cpu progress event, total committed:97674, progress insts committed: 222, IPC: 0000.222
418000000: Event_62: system.cpu progress event, total committed:97943, progress insts committed: 269, IPC: 0000.269
419000000: Event_62: system.cpu progress event, total committed:98183, progress insts committed: 240, IPC: 00000.24
420000000: Event_62: system.cpu progress event, total committed:98429, progress insts committed: 246, IPC: 0000.246
421000000: Event_62: system.cpu progress event, total committed:98634, progress insts committed: 205, IPC: 0000.205
422000000: Event_62: system.cpu progress event, total committed:98903, progress insts committed: 269, IPC: 0000.269
423000000: Event_62: system.cpu progress event, total committed:99148, progress insts committed: 245, IPC: 0000.245
424000000: Event_62: system.cpu progress event, total committed:99416, progress insts committed: 268, IPC: 0000.268
425000000: Event_62: system.cpu progress event, total committed:99661, progress insts committed: 245, IPC: 0000.245
426000000: Event_62: system.cpu progress event, total committed:99916, progress insts committed: 255, IPC: 0000.255
427000000: Event_62: system.cpu progress event, total committed:100156, progress insts committed: 240, IPC: 00000.24
428000000: Event_62: system.cpu progress event, total committed:100416, progress insts committed: 260, IPC: 00000.26
429000000: Event_62: system.cpu progress event, total committed:100621, progress insts committed: 205, IPC: 0000.205
430000000: Event_62: system.cpu progress event, total committed:100876, progress insts committed: 255, IPC: 0000.255
431000000: Event_62: system.cpu progress event, total committed:101135, progress insts committed: 259, IPC: 0000.259
432000000: Event_62: system.cpu progress event, total committed:101403, progress insts committed: 268, IPC: 0000.268
433000000: Event_62: system.cpu progress event, total committed:101672, progress insts committed: 269, IPC: 0000.269
434000000: Event_62: system.cpu progress event, total committed:101917, progress insts committed: 245, IPC: 0000.245
435000000: Event_62: system.cpu progress event, total committed:102158, progress insts committed: 241, IPC: 0000.241
436000000: Event_62: system.cpu progress event, total committed:102425, progress insts committed: 267, IPC: 0000.267
437000000: Event_62: system.cpu progress event, total committed:102582, progress insts committed: 157, IPC: 0000.157
438000000: Event_62: system.cpu progress event, total committed:102830, progress insts committed: 248, IPC: 0000.248
439000000: Event_62: system.cpu progress event, total committed:103099, progress insts committed: 269, IPC: 0000.269
440000000: Event_62: system.cpu progress event, total committed:103322, progress insts committed: 223, IPC: 0000.223
441000000: Event_62: system.cpu progress event, total committed:103590, progress insts committed: 268, IPC: 0000.268
442000000: Event_62: system.cpu progress event, total committed:103831, progress insts committed: 241, IPC: 0000.241
443000000: Event_62: system.cpu progress event, total committed:104076, progress insts committed: 245, IPC: 0000.245
444000000: Event_62: system.cpu progress event, total committed:104321, progress insts committed: 245, IPC: 0000.245
445000000: Event_62: system.cpu progress event, total committed:104585, progress insts committed: 264, IPC: 0000.264
446000000: Event_62: system.cpu progress event, total committed:104836, progress insts committed: 251, IPC: 0000.251
447000000: Event_62: system.cpu progress event, total committed:105094, progress insts committed: 258, IPC: 0000.258
448000000: Event_62: system.cpu progress event, total committed:105363, progress insts committed: 269, IPC: 0000.269
449000000: Event_62: system.cpu progress event, total committed:105609, progress insts committed: 246, IPC: 0000.246
450000000: Event_62: system.cpu progress event, total committed:105877, progress insts committed: 268, IPC: 0000.268
451000000: Event_62: system.cpu progress event, total committed:106121, progress insts committed: 244, IPC: 0000.244
452000000: Event_62: system.cpu progress event, total committed:106317, progress insts committed: 196, IPC: 0000.196
453000000: Event_62: system.cpu progress event, total committed:106585, progress insts committed: 268, IPC: 0000.268
454000000: Event_62: system.cpu progress event, total committed:106853, progress insts committed: 268, IPC: 0000.268
455000000: Event_62: system.cpu progress event, total committed:107116, progress insts committed: 263, IPC: 0000.263
456000000: Event_62: system.cpu progress event, total committed:107358, progress insts committed: 242, IPC: 0000.242
457000000: Event_62: system.cpu progress event, total committed:107613, progress insts committed: 255, IPC: 0000.255
458000000: Event_62: system.cpu progress event, total committed:107858, progress insts committed: 245, IPC: 0000.245
459000000: Event_62: system.cpu progress event, total committed:108122, progress insts committed: 264, IPC: 0000.264
460000000: Event_62: system.cpu progress event, total committed:108363, progress insts committed: 241, IPC: 0000.241
461000000: Event_62: system.cpu progress event, total committed:108631, progress insts committed: 268, IPC: 0000.268
462000000: Event_62: system.cpu progress event, total committed:108854, progress insts committed: 223, IPC: 0000.223
463000000: Event_62: system.cpu progress event, total committed:109121, progress insts committed: 267, IPC: 0000.267
464000000: Event_62: system.cpu progress event, total committed:109389, progress insts committed: 268, IPC: 0000.268
465000000: Event_62: system.cpu progress event, total committed:109636, progress insts committed: 247, IPC: 0000.247
466000000: Event_62: system.cpu progress event, total committed:109874, progress insts committed: 238, IPC: 0000.238
467000000: Event_62: system.cpu progress event, total committed:110112, progress insts committed: 238, IPC: 0000.238
468000000: Event_62: system.cpu progress event, total committed:110352, progress insts committed: 240, IPC: 00000.24
469000000: Event_62: system.cpu progress event, total committed:110596, progress insts committed: 244, IPC: 0000.244
470000000: Event_62: system.cpu progress event, total committed:110841, progress insts committed: 245, IPC: 0000.245
471000000: Event_62: system.cpu progress event, total committed:111087, progress insts committed: 246, IPC: 0000.246
472000000: Event_62: system.cpu progress event, total committed:111333, progress insts committed: 246, IPC: 0000.246
473000000: Event_62: system.cpu progress event, total committed:111572, progress insts committed: 239, IPC: 0000.239
474000000: Event_62: system.cpu progress event, total committed:111816, progress insts committed: 244, IPC: 0000.244
475000000: Event_62: system.cpu progress event, total committed:112061, progress insts committed: 245, IPC: 0000.245
476000000: Event_62: system.cpu progress event, total committed:112302, progress insts committed: 241, IPC: 0000.241
477000000: Event_62: system.cpu progress event, total committed:112548, progress insts committed: 246, IPC: 0000.246
478000000: Event_62: system.cpu progress event, total committed:112817, progress insts committed: 269, IPC: 0000.269
479000000: Event_62: system.cpu progress event, total committed:113047, progress insts committed: 230, IPC: 00000.23
480000000: Event_62: system.cpu progress event, total committed:113259, progress insts committed: 212, IPC: 0000.212
481000000: Event_62: system.cpu progress event, total committed:113399, progress insts committed: 140, IPC: 00000.14
482000000: Event_62: system.cpu progress event, total committed:113502, progress insts committed: 103, IPC: 0000.103
src/sim/mem_state.cc:443: info: Increasing stack size by one page.
483000000: Event_62: system.cpu progress event, total committed:113561, progress insts committed: 59, IPC: 0000.059
484000000: Event_62: system.cpu progress event, total committed:113776, progress insts committed: 215, IPC: 0000.215
485000000: Event_62: system.cpu progress event, total committed:113985, progress insts committed: 209, IPC: 0000.209
486000000: Event_62: system.cpu progress event, total committed:114250, progress insts committed: 265, IPC: 0000.265
487000000: Event_62: system.cpu progress event, total committed:114553, progress insts committed: 303, IPC: 0000.303
488000000: Event_62: system.cpu progress event, total committed:114850, progress insts committed: 297, IPC: 0000.297
489000000: Event_62: system.cpu progress event, total committed:114982, progress insts committed: 132, IPC: 0000.132
490000000: Event_62: system.cpu progress event, total committed:115098, progress insts committed: 116, IPC: 0000.116
491000000: Event_62: system.cpu progress event, total committed:115187, progress insts committed: 89, IPC: 0000.089
492000000: Event_62: system.cpu progress event, total committed:115312, progress insts committed: 125, IPC: 0000.125
493000000: Event_62: system.cpu progress event, total committed:115434, progress insts committed: 122, IPC: 0000.122
494000000: Event_62: system.cpu progress event, total committed:115550, progress insts committed: 116, IPC: 0000.116
495000000: Event_62: system.cpu progress event, total committed:115666, progress insts committed: 116, IPC: 0000.116
496000000: Event_62: system.cpu progress event, total committed:115784, progress insts committed: 118, IPC: 0000.118
497000000: Event_62: system.cpu progress event, total committed:115906, progress insts committed: 122, IPC: 0000.122
498000000: Event_62: system.cpu progress event, total committed:116026, progress insts committed: 120, IPC: 00000.12
499000000: Event_62: system.cpu progress event, total committed:116113, progress insts committed: 87, IPC: 0000.087
500000000: Event_62: system.cpu progress event, total committed:116231, progress insts committed: 118, IPC: 0000.118
501000000: Event_62: system.cpu progress event, total committed:116352, progress insts committed: 121, IPC: 0000.121
502000000: Event_62: system.cpu progress event, total committed:116478, progress insts committed: 126, IPC: 0000.126
503000000: Event_62: system.cpu progress event, total committed:116594, progress insts committed: 116, IPC: 0000.116
504000000: Event_62: system.cpu progress event, total committed:116710, progress insts committed: 116, IPC: 0000.116
505000000: Event_62: system.cpu progress event, total committed:116826, progress insts committed: 116, IPC: 0000.116
506000000: Event_62: system.cpu progress event, total committed:116949, progress insts committed: 123, IPC: 0000.123
507000000: Event_62: system.cpu progress event, total committed:117041, progress insts committed: 92, IPC: 0000.092
508000000: Event_62: system.cpu progress event, total committed:117157, progress insts committed: 116, IPC: 0000.116
509000000: Event_62: system.cpu progress event, total committed:117273, progress insts committed: 116, IPC: 0000.116
510000000: Event_62: system.cpu progress event, total committed:117398, progress insts committed: 125, IPC: 0000.125
511000000: Event_62: system.cpu progress event, total committed:117520, progress insts committed: 122, IPC: 0000.122
512000000: Event_62: system.cpu progress event, total committed:117638, progress insts committed: 118, IPC: 0000.118
513000000: Event_62: system.cpu progress event, total committed:117754, progress insts committed: 116, IPC: 0000.116
514000000: Event_62: system.cpu progress event, total committed:117870, progress insts committed: 116, IPC: 0000.116
515000000: Event_62: system.cpu progress event, total committed:117965, progress insts committed: 95, IPC: 0000.095
516000000: Event_62: system.cpu progress event, total committed:118085, progress insts committed: 120, IPC: 00000.12
517000000: Event_62: system.cpu progress event, total committed:118201, progress insts committed: 116, IPC: 0000.116
518000000: Event_62: system.cpu progress event, total committed:118317, progress insts committed: 116, IPC: 0000.116
519000000: Event_62: system.cpu progress event, total committed:118438, progress insts committed: 121, IPC: 0000.121
520000000: Event_62: system.cpu progress event, total committed:118564, progress insts committed: 126, IPC: 0000.126
521000000: Event_62: system.cpu progress event, total committed:118689, progress insts committed: 125, IPC: 0000.125
522000000: Event_62: system.cpu progress event, total committed:118870, progress insts committed: 181, IPC: 0000.181
523000000: Event_62: system.cpu progress event, total committed:119136, progress insts committed: 266, IPC: 0000.266
524000000: Event_62: system.cpu progress event, total committed:119260, progress insts committed: 124, IPC: 0000.124
525000000: Event_62: system.cpu progress event, total committed:119398, progress insts committed: 138, IPC: 0000.138
526000000: Event_62: system.cpu progress event, total committed:119523, progress insts committed: 125, IPC: 0000.125
527000000: Event_62: system.cpu progress event, total committed:119689, progress insts committed: 166, IPC: 0000.166
528000000: Event_62: system.cpu progress event, total committed:119932, progress insts committed: 243, IPC: 0000.243
529000000: Event_62: system.cpu progress event, total committed:120195, progress insts committed: 263, IPC: 0000.263
530000000: Event_62: system.cpu progress event, total committed:120469, progress insts committed: 274, IPC: 0000.274
531000000: Event_62: system.cpu progress event, total committed:120732, progress insts committed: 263, IPC: 0000.263
532000000: Event_62: system.cpu progress event, total committed:121002, progress insts committed: 270, IPC: 00000.27
533000000: Event_62: system.cpu progress event, total committed:121270, progress insts committed: 268, IPC: 0000.268
534000000: Event_62: system.cpu progress event, total committed:121536, progress insts committed: 266, IPC: 0000.266
535000000: Event_62: system.cpu progress event, total committed:121814, progress insts committed: 278, IPC: 0000.278
536000000: Event_62: system.cpu progress event, total committed:122095, progress insts committed: 281, IPC: 0000.281
537000000: Event_62: system.cpu progress event, total committed:122359, progress insts committed: 264, IPC: 0000.264
538000000: Event_62: system.cpu progress event, total committed:122640, progress insts committed: 281, IPC: 0000.281
539000000: Event_62: system.cpu progress event, total committed:122918, progress insts committed: 278, IPC: 0000.278
540000000: Event_62: system.cpu progress event, total committed:123210, progress insts committed: 292, IPC: 0000.292
541000000: Event_62: system.cpu progress event, total committed:123474, progress insts committed: 264, IPC: 0000.264
542000000: Event_62: system.cpu progress event, total committed:123772, progress insts committed: 298, IPC: 0000.298
543000000: Event_62: system.cpu progress event, total committed:124075, progress insts committed: 303, IPC: 0000.303
544000000: Event_62: system.cpu progress event, total committed:124373, progress insts committed: 298, IPC: 0000.298
545000000: Event_62: system.cpu progress event, total committed:124668, progress insts committed: 295, IPC: 0000.295
546000000: Event_62: system.cpu progress event, total committed:124942, progress insts committed: 274, IPC: 0000.274
547000000: Event_62: system.cpu progress event, total committed:125234, progress insts committed: 292, IPC: 0000.292
548000000: Event_62: system.cpu progress event, total committed:125539, progress insts committed: 305, IPC: 0000.305
549000000: Event_62: system.cpu progress event, total committed:125829, progress insts committed: 290, IPC: 00000.29
550000000: Event_62: system.cpu progress event, total committed:126132, progress insts committed: 303, IPC: 0000.303
551000000: Event_62: system.cpu progress event, total committed:126433, progress insts committed: 301, IPC: 0000.301
552000000: Event_62: system.cpu progress event, total committed:126735, progress insts committed: 302, IPC: 0000.302
553000000: Event_62: system.cpu progress event, total committed:127036, progress insts committed: 301, IPC: 0000.301
554000000: Event_62: system.cpu progress event, total committed:127332, progress insts committed: 296, IPC: 0000.296
555000000: Event_62: system.cpu progress event, total committed:127625, progress insts committed: 293, IPC: 0000.293
556000000: Event_62: system.cpu progress event, total committed:127913, progress insts committed: 288, IPC: 0000.288
557000000: Event_62: system.cpu progress event, total committed:128211, progress insts committed: 298, IPC: 0000.298
558000000: Event_62: system.cpu progress event, total committed:128517, progress insts committed: 306, IPC: 0000.306
559000000: Event_62: system.cpu progress event, total committed:128810, progress insts committed: 293, IPC: 0000.293
560000000: Event_62: system.cpu progress event, total committed:129118, progress insts committed: 308, IPC: 0000.308
561000000: Event_62: system.cpu progress event, total committed:129406, progress insts committed: 288, IPC: 0000.288
562000000: Event_62: system.cpu progress event, total committed:129713, progress insts committed: 307, IPC: 0000.307
563000000: Event_62: system.cpu progress event, total committed:130023, progress insts committed: 310, IPC: 00000.31
564000000: Event_62: system.cpu progress event, total committed:130323, progress insts committed: 300, IPC: 000000.3
565000000: Event_62: system.cpu progress event, total committed:130624, progress insts committed: 301, IPC: 0000.301
566000000: Event_62: system.cpu progress event, total committed:130924, progress insts committed: 300, IPC: 000000.3
567000000: Event_62: system.cpu progress event, total committed:131226, progress insts committed: 302, IPC: 0000.302
568000000: Event_62: system.cpu progress event, total committed:131537, progress insts committed: 311, IPC: 0000.311
569000000: Event_62: system.cpu progress event, total committed:131840, progress insts committed: 303, IPC: 0000.303
570000000: Event_62: system.cpu progress event, total committed:132139, progress insts committed: 299, IPC: 0000.299
571000000: Event_62: system.cpu progress event, total committed:132426, progress insts committed: 287, IPC: 0000.287
572000000: Event_62: system.cpu progress event, total committed:132721, progress insts committed: 295, IPC: 0000.295
573000000: Event_62: system.cpu progress event, total committed:133020, progress insts committed: 299, IPC: 0000.299
574000000: Event_62: system.cpu progress event, total committed:133313, progress insts committed: 293, IPC: 0000.293
575000000: Event_62: system.cpu progress event, total committed:133614, progress insts committed: 301, IPC: 0000.301
576000000: Event_62: system.cpu progress event, total committed:133914, progress insts committed: 300, IPC: 000000.3
577000000: Event_62: system.cpu progress event, total committed:134216, progress insts committed: 302, IPC: 0000.302
578000000: Event_62: system.cpu progress event, total committed:134517, progress insts committed: 301, IPC: 0000.301
579000000: Event_62: system.cpu progress event, total committed:134823, progress insts committed: 306, IPC: 0000.306
580000000: Event_62: system.cpu progress event, total committed:135126, progress insts committed: 303, IPC: 0000.303
581000000: Event_62: system.cpu progress event, total committed:135428, progress insts committed: 302, IPC: 0000.302
582000000: Event_62: system.cpu progress event, total committed:135717, progress insts committed: 289, IPC: 0000.289
583000000: Event_62: system.cpu progress event, total committed:136024, progress insts committed: 307, IPC: 0000.307
584000000: Event_62: system.cpu progress event, total committed:136328, progress insts committed: 304, IPC: 0000.304
585000000: Event_62: system.cpu progress event, total committed:136633, progress insts committed: 305, IPC: 0000.305
586000000: Event_62: system.cpu progress event, total committed:136938, progress insts committed: 305, IPC: 0000.305
587000000: Event_62: system.cpu progress event, total committed:137243, progress insts committed: 305, IPC: 0000.305
588000000: Event_62: system.cpu progress event, total committed:137550, progress insts committed: 307, IPC: 0000.307
589000000: Event_62: system.cpu progress event, total committed:137848, progress insts committed: 298, IPC: 0000.298
590000000: Event_62: system.cpu progress event, total committed:138152, progress insts committed: 304, IPC: 0000.304
591000000: Event_62: system.cpu progress event, total committed:138460, progress insts committed: 308, IPC: 0000.308
592000000: Event_62: system.cpu progress event, total committed:138758, progress insts committed: 298, IPC: 0000.298
593000000: Event_62: system.cpu progress event, total committed:139058, progress insts committed: 300, IPC: 000000.3
594000000: Event_62: system.cpu progress event, total committed:139349, progress insts committed: 291, IPC: 0000.291
595000000: Event_62: system.cpu progress event, total committed:139647, progress insts committed: 298, IPC: 0000.298
596000000: Event_62: system.cpu progress event, total committed:139956, progress insts committed: 309, IPC: 0000.309
597000000: Event_62: system.cpu progress event, total committed:140262, progress insts committed: 306, IPC: 0000.306
598000000: Event_62: system.cpu progress event, total committed:140564, progress insts committed: 302, IPC: 0000.302
599000000: Event_62: system.cpu progress event, total committed:140867, progress insts committed: 303, IPC: 0000.303
600000000: Event_62: system.cpu progress event, total committed:141170, progress insts committed: 303, IPC: 0000.303
601000000: Event_62: system.cpu progress event, total committed:141474, progress insts committed: 304, IPC: 0000.304
602000000: Event_62: system.cpu progress event, total committed:141780, progress insts committed: 306, IPC: 0000.306
603000000: Event_62: system.cpu progress event, total committed:142088, progress insts committed: 308, IPC: 0000.308
604000000: Event_62: system.cpu progress event, total committed:142389, progress insts committed: 301, IPC: 0000.301
605000000: Event_62: system.cpu progress event, total committed:142692, progress insts committed: 303, IPC: 0000.303
606000000: Event_62: system.cpu progress event, total committed:142997, progress insts committed: 305, IPC: 0000.305
607000000: Event_62: system.cpu progress event, total committed:143298, progress insts committed: 301, IPC: 0000.301
608000000: Event_62: system.cpu progress event, total committed:143606, progress insts committed: 308, IPC: 0000.308
609000000: Event_62: system.cpu progress event, total committed:143908, progress insts committed: 302, IPC: 0000.302
610000000: Event_62: system.cpu progress event, total committed:144202, progress insts committed: 294, IPC: 0000.294
611000000: Event_62: system.cpu progress event, total committed:144508, progress insts committed: 306, IPC: 0000.306
612000000: Event_62: system.cpu progress event, total committed:144807, progress insts committed: 299, IPC: 0000.299
613000000: Event_62: system.cpu progress event, total committed:145114, progress insts committed: 307, IPC: 0000.307
614000000: Event_62: system.cpu progress event, total committed:145422, progress insts committed: 308, IPC: 0000.308
615000000: Event_62: system.cpu progress event, total committed:145712, progress insts committed: 290, IPC: 00000.29
616000000: Event_62: system.cpu progress event, total committed:146021, progress insts committed: 309, IPC: 0000.309
617000000: Event_62: system.cpu progress event, total committed:146326, progress insts committed: 305, IPC: 0000.305
618000000: Event_62: system.cpu progress event, total committed:146627, progress insts committed: 301, IPC: 0000.301
619000000: Event_62: system.cpu progress event, total committed:146932, progress insts committed: 305, IPC: 0000.305
620000000: Event_62: system.cpu progress event, total committed:147225, progress insts committed: 293, IPC: 0000.293
621000000: Event_62: system.cpu progress event, total committed:147537, progress insts committed: 312, IPC: 0000.312
622000000: Event_62: system.cpu progress event, total committed:147828, progress insts committed: 291, IPC: 0000.291
623000000: Event_62: system.cpu progress event, total committed:148118, progress insts committed: 290, IPC: 00000.29
624000000: Event_62: system.cpu progress event, total committed:148423, progress insts committed: 305, IPC: 0000.305
625000000: Event_62: system.cpu progress event, total committed:148716, progress insts committed: 293, IPC: 0000.293
626000000: Event_62: system.cpu progress event, total committed:149023, progress insts committed: 307, IPC: 0000.307
627000000: Event_62: system.cpu progress event, total committed:149318, progress insts committed: 295, IPC: 0000.295
628000000: Event_62: system.cpu progress event, total committed:149619, progress insts committed: 301, IPC: 0000.301
629000000: Event_62: system.cpu progress event, total committed:149925, progress insts committed: 306, IPC: 0000.306
630000000: Event_62: system.cpu progress event, total committed:150221, progress insts committed: 296, IPC: 0000.296
631000000: Event_62: system.cpu progress event, total committed:150533, progress insts committed: 312, IPC: 0000.312
632000000: Event_62: system.cpu progress event, total committed:150836, progress insts committed: 303, IPC: 0000.303
633000000: Event_62: system.cpu progress event, total committed:151142, progress insts committed: 306, IPC: 0000.306
634000000: Event_62: system.cpu progress event, total committed:151452, progress insts committed: 310, IPC: 00000.31
635000000: Event_62: system.cpu progress event, total committed:151757, progress insts committed: 305, IPC: 0000.305
636000000: Event_62: system.cpu progress event, total committed:152057, progress insts committed: 300, IPC: 000000.3
637000000: Event_62: system.cpu progress event, total committed:152358, progress insts committed: 301, IPC: 0000.301
638000000: Event_62: system.cpu progress event, total committed:152664, progress insts committed: 306, IPC: 0000.306
639000000: Event_62: system.cpu progress event, total committed:152965, progress insts committed: 301, IPC: 0000.301
640000000: Event_62: system.cpu progress event, total committed:153269, progress insts committed: 304, IPC: 0000.304
641000000: Event_62: system.cpu progress event, total committed:153566, progress insts committed: 297, IPC: 0000.297
642000000: Event_62: system.cpu progress event, total committed:153867, progress insts committed: 301, IPC: 0000.301
643000000: Event_62: system.cpu progress event, total committed:154161, progress insts committed: 294, IPC: 0000.294
644000000: Event_62: system.cpu progress event, total committed:154467, progress insts committed: 306, IPC: 0000.306
645000000: Event_62: system.cpu progress event, total committed:154762, progress insts committed: 295, IPC: 0000.295
646000000: Event_62: system.cpu progress event, total committed:155067, progress insts committed: 305, IPC: 0000.305
647000000: Event_62: system.cpu progress event, total committed:155364, progress insts committed: 297, IPC: 0000.297
648000000: Event_62: system.cpu progress event, total committed:155658, progress insts committed: 294, IPC: 0000.294
649000000: Event_62: system.cpu progress event, total committed:155964, progress insts committed: 306, IPC: 0000.306
650000000: Event_62: system.cpu progress event, total committed:156263, progress insts committed: 299, IPC: 0000.299
651000000: Event_62: system.cpu progress event, total committed:156564, progress insts committed: 301, IPC: 0000.301
652000000: Event_62: system.cpu progress event, total committed:156864, progress insts committed: 300, IPC: 000000.3
653000000: Event_62: system.cpu progress event, total committed:157172, progress insts committed: 308, IPC: 0000.308
654000000: Event_62: system.cpu progress event, total committed:157481, progress insts committed: 309, IPC: 0000.309
655000000: Event_62: system.cpu progress event, total committed:157773, progress insts committed: 292, IPC: 0000.292
656000000: Event_62: system.cpu progress event, total committed:158064, progress insts committed: 291, IPC: 0000.291
657000000: Event_62: system.cpu progress event, total committed:158357, progress insts committed: 293, IPC: 0000.293
658000000: Event_62: system.cpu progress event, total committed:158639, progress insts committed: 282, IPC: 0000.282
659000000: Event_62: system.cpu progress event, total committed:158943, progress insts committed: 304, IPC: 0000.304
660000000: Event_62: system.cpu progress event, total committed:159245, progress insts committed: 302, IPC: 0000.302
661000000: Event_62: system.cpu progress event, total committed:159553, progress insts committed: 308, IPC: 0000.308
662000000: Event_62: system.cpu progress event, total committed:159855, progress insts committed: 302, IPC: 0000.302
663000000: Event_62: system.cpu progress event, total committed:160162, progress insts committed: 307, IPC: 0000.307
664000000: Event_62: system.cpu progress event, total committed:160471, progress insts committed: 309, IPC: 0000.309
665000000: Event_62: system.cpu progress event, total committed:160771, progress insts committed: 300, IPC: 000000.3
666000000: Event_62: system.cpu progress event, total committed:161068, progress insts committed: 297, IPC: 0000.297
667000000: Event_62: system.cpu progress event, total committed:161352, progress insts committed: 284, IPC: 0000.284
668000000: Event_62: system.cpu progress event, total committed:161642, progress insts committed: 290, IPC: 00000.29
669000000: Event_62: system.cpu progress event, total committed:161952, progress insts committed: 310, IPC: 00000.31
670000000: Event_62: system.cpu progress event, total committed:162248, progress insts committed: 296, IPC: 0000.296
671000000: Event_62: system.cpu progress event, total committed:162553, progress insts committed: 305, IPC: 0000.305
672000000: Event_62: system.cpu progress event, total committed:162858, progress insts committed: 305, IPC: 0000.305
673000000: Event_62: system.cpu progress event, total committed:163164, progress insts committed: 306, IPC: 0000.306
674000000: Event_62: system.cpu progress event, total committed:163466, progress insts committed: 302, IPC: 0000.302
675000000: Event_62: system.cpu progress event, total committed:163767, progress insts committed: 301, IPC: 0000.301
[...]
33519000000: Event_62: system.cpu progress event, total committed:9950560, progress insts committed: 301, IPC: 0000.301
33520000000: Event_62: system.cpu progress event, total committed:9950862, progress insts committed: 302, IPC: 0000.302
33521000000: Event_62: system.cpu progress event, total committed:9951165, progress insts committed: 303, IPC: 0000.303
33522000000: Event_62: system.cpu progress event, total committed:9951464, progress insts committed: 299, IPC: 0000.299
33523000000: Event_62: system.cpu progress event, total committed:9951761, progress insts committed: 297, IPC: 0000.297
33524000000: Event_62: system.cpu progress event, total committed:9952063, progress insts committed: 302, IPC: 0000.302
33525000000: Event_62: system.cpu progress event, total committed:9952361, progress insts committed: 298, IPC: 0000.298
33526000000: Event_62: system.cpu progress event, total committed:9952665, progress insts committed: 304, IPC: 0000.304
33527000000: Event_62: system.cpu progress event, total committed:9952967, progress insts committed: 302, IPC: 0000.302
33528000000: Event_62: system.cpu progress event, total committed:9953269, progress insts committed: 302, IPC: 0000.302
33529000000: Event_62: system.cpu progress event, total committed:9953566, progress insts committed: 297, IPC: 0000.297
33530000000: Event_62: system.cpu progress event, total committed:9953866, progress insts committed: 300, IPC: 000000.3
33531000000: Event_62: system.cpu progress event, total committed:9954164, progress insts committed: 298, IPC: 0000.298
33532000000: Event_62: system.cpu progress event, total committed:9954444, progress insts committed: 280, IPC: 00000.28
33533000000: Event_62: system.cpu progress event, total committed:9954756, progress insts committed: 312, IPC: 0000.312
33534000000: Event_62: system.cpu progress event, total committed:9955057, progress insts committed: 301, IPC: 0000.301
33535000000: Event_62: system.cpu progress event, total committed:9955350, progress insts committed: 293, IPC: 0000.293
33536000000: Event_62: system.cpu progress event, total committed:9955649, progress insts committed: 299, IPC: 0000.299
33537000000: Event_62: system.cpu progress event, total committed:9955948, progress insts committed: 299, IPC: 0000.299
33538000000: Event_62: system.cpu progress event, total committed:9956256, progress insts committed: 308, IPC: 0000.308
33539000000: Event_62: system.cpu progress event, total committed:9956567, progress insts committed: 311, IPC: 0000.311
33540000000: Event_62: system.cpu progress event, total committed:9956861, progress insts committed: 294, IPC: 0000.294
33541000000: Event_62: system.cpu progress event, total committed:9957162, progress insts committed: 301, IPC: 0000.301
33542000000: Event_62: system.cpu progress event, total committed:9957464, progress insts committed: 302, IPC: 0000.302
33543000000: Event_62: system.cpu progress event, total committed:9957766, progress insts committed: 302, IPC: 0000.302
33544000000: Event_62: system.cpu progress event, total committed:9958060, progress insts committed: 294, IPC: 0000.294
33545000000: Event_62: system.cpu progress event, total committed:9958359, progress insts committed: 299, IPC: 0000.299
33546000000: Event_62: system.cpu progress event, total committed:9958659, progress insts committed: 300, IPC: 000000.3
33547000000: Event_62: system.cpu progress event, total committed:9958961, progress insts committed: 302, IPC: 0000.302
33548000000: Event_62: system.cpu progress event, total committed:9959263, progress insts committed: 302, IPC: 0000.302
33549000000: Event_62: system.cpu progress event, total committed:9959565, progress insts committed: 302, IPC: 0000.302
33550000000: Event_62: system.cpu progress event, total committed:9959868, progress insts committed: 303, IPC: 0000.303
33551000000: Event_62: system.cpu progress event, total committed:9960169, progress insts committed: 301, IPC: 0000.301
33552000000: Event_62: system.cpu progress event, total committed:9960470, progress insts committed: 301, IPC: 0000.301
33553000000: Event_62: system.cpu progress event, total committed:9960776, progress insts committed: 306, IPC: 0000.306
33554000000: Event_62: system.cpu progress event, total committed:9961072, progress insts committed: 296, IPC: 0000.296
33555000000: Event_62: system.cpu progress event, total committed:9961366, progress insts committed: 294, IPC: 0000.294
33556000000: Event_62: system.cpu progress event, total committed:9961659, progress insts committed: 293, IPC: 0000.293
33557000000: Event_62: system.cpu progress event, total committed:9961972, progress insts committed: 313, IPC: 0000.313
33558000000: Event_62: system.cpu progress event, total committed:9962260, progress insts committed: 288, IPC: 0000.288
33559000000: Event_62: system.cpu progress event, total committed:9962558, progress insts committed: 298, IPC: 0000.298
33560000000: Event_62: system.cpu progress event, total committed:9962859, progress insts committed: 301, IPC: 0000.301
33561000000: Event_62: system.cpu progress event, total committed:9963148, progress insts committed: 289, IPC: 0000.289
33562000000: Event_62: system.cpu progress event, total committed:9963433, progress insts committed: 285, IPC: 0000.285
33563000000: Event_62: system.cpu progress event, total committed:9963736, progress insts committed: 303, IPC: 0000.303
33564000000: Event_62: system.cpu progress event, total committed:9964037, progress insts committed: 301, IPC: 0000.301
33565000000: Event_62: system.cpu progress event, total committed:9964340, progress insts committed: 303, IPC: 0000.303
33566000000: Event_62: system.cpu progress event, total committed:9964633, progress insts committed: 293, IPC: 0000.293
33567000000: Event_62: system.cpu progress event, total committed:9964933, progress insts committed: 300, IPC: 000000.3
33568000000: Event_62: system.cpu progress event, total committed:9965235, progress insts committed: 302, IPC: 0000.302
33569000000: Event_62: system.cpu progress event, total committed:9965537, progress insts committed: 302, IPC: 0000.302
33570000000: Event_62: system.cpu progress event, total committed:9965840, progress insts committed: 303, IPC: 0000.303
33571000000: Event_62: system.cpu progress event, total committed:9966142, progress insts committed: 302, IPC: 0000.302
33572000000: Event_62: system.cpu progress event, total committed:9966441, progress insts committed: 299, IPC: 0000.299
33573000000: Event_62: system.cpu progress event, total committed:9966734, progress insts committed: 293, IPC: 0000.293
33574000000: Event_62: system.cpu progress event, total committed:9967028, progress insts committed: 294, IPC: 0000.294
33575000000: Event_62: system.cpu progress event, total committed:9967325, progress insts committed: 297, IPC: 0000.297
33576000000: Event_62: system.cpu progress event, total committed:9967622, progress insts committed: 297, IPC: 0000.297
33577000000: Event_62: system.cpu progress event, total committed:9967920, progress insts committed: 298, IPC: 0000.298
33578000000: Event_62: system.cpu progress event, total committed:9968205, progress insts committed: 285, IPC: 0000.285
33579000000: Event_62: system.cpu progress event, total committed:9968508, progress insts committed: 303, IPC: 0000.303
33580000000: Event_62: system.cpu progress event, total committed:9968792, progress insts committed: 284, IPC: 0000.284
33581000000: Event_62: system.cpu progress event, total committed:9969088, progress insts committed: 296, IPC: 0000.296
33582000000: Event_62: system.cpu progress event, total committed:9969383, progress insts committed: 295, IPC: 0000.295
33583000000: Event_62: system.cpu progress event, total committed:9969680, progress insts committed: 297, IPC: 0000.297
33584000000: Event_62: system.cpu progress event, total committed:9969961, progress insts committed: 281, IPC: 0000.281
33585000000: Event_62: system.cpu progress event, total committed:9970264, progress insts committed: 303, IPC: 0000.303
33586000000: Event_62: system.cpu progress event, total committed:9970565, progress insts committed: 301, IPC: 0000.301
33587000000: Event_62: system.cpu progress event, total committed:9970868, progress insts committed: 303, IPC: 0000.303
33588000000: Event_62: system.cpu progress event, total committed:9971168, progress insts committed: 300, IPC: 000000.3
33589000000: Event_62: system.cpu progress event, total committed:9971465, progress insts committed: 297, IPC: 0000.297
33590000000: Event_62: system.cpu progress event, total committed:9971767, progress insts committed: 302, IPC: 0000.302
33591000000: Event_62: system.cpu progress event, total committed:9972069, progress insts committed: 302, IPC: 0000.302
33592000000: Event_62: system.cpu progress event, total committed:9972373, progress insts committed: 304, IPC: 0000.304
33593000000: Event_62: system.cpu progress event, total committed:9972671, progress insts committed: 298, IPC: 0000.298
33594000000: Event_62: system.cpu progress event, total committed:9972973, progress insts committed: 302, IPC: 0000.302
33595000000: Event_62: system.cpu progress event, total committed:9973264, progress insts committed: 291, IPC: 0000.291
33596000000: Event_62: system.cpu progress event, total committed:9973557, progress insts committed: 293, IPC: 0000.293
33597000000: Event_62: system.cpu progress event, total committed:9973858, progress insts committed: 301, IPC: 0000.301
33598000000: Event_62: system.cpu progress event, total committed:9974130, progress insts committed: 272, IPC: 0000.272
33599000000: Event_62: system.cpu progress event, total committed:9974432, progress insts committed: 302, IPC: 0000.302
33600000000: Event_62: system.cpu progress event, total committed:9974728, progress insts committed: 296, IPC: 0000.296
33601000000: Event_62: system.cpu progress event, total committed:9975036, progress insts committed: 308, IPC: 0000.308
33602000000: Event_62: system.cpu progress event, total committed:9975335, progress insts committed: 299, IPC: 0000.299
33603000000: Event_62: system.cpu progress event, total committed:9975630, progress insts committed: 295, IPC: 0000.295
33604000000: Event_62: system.cpu progress event, total committed:9975920, progress insts committed: 290, IPC: 00000.29
33605000000: Event_62: system.cpu progress event, total committed:9976204, progress insts committed: 284, IPC: 0000.284
33606000000: Event_62: system.cpu progress event, total committed:9976494, progress insts committed: 290, IPC: 00000.29
33607000000: Event_62: system.cpu progress event, total committed:9976798, progress insts committed: 304, IPC: 0000.304
33608000000: Event_62: system.cpu progress event, total committed:9977099, progress insts committed: 301, IPC: 0000.301
33609000000: Event_62: system.cpu progress event, total committed:9977401, progress insts committed: 302, IPC: 0000.302
33610000000: Event_62: system.cpu progress event, total committed:9977703, progress insts committed: 302, IPC: 0000.302
33611000000: Event_62: system.cpu progress event, total committed:9977994, progress insts committed: 291, IPC: 0000.291
33612000000: Event_62: system.cpu progress event, total committed:9978296, progress insts committed: 302, IPC: 0000.302
33613000000: Event_62: system.cpu progress event, total committed:9978595, progress insts committed: 299, IPC: 0000.299
33614000000: Event_62: system.cpu progress event, total committed:9978898, progress insts committed: 303, IPC: 0000.303
33615000000: Event_62: system.cpu progress event, total committed:9979199, progress insts committed: 301, IPC: 0000.301
33616000000: Event_62: system.cpu progress event, total committed:9979503, progress insts committed: 304, IPC: 0000.304
33617000000: Event_62: system.cpu progress event, total committed:9979799, progress insts committed: 296, IPC: 0000.296
33618000000: Event_62: system.cpu progress event, total committed:9980089, progress insts committed: 290, IPC: 00000.29
33619000000: Event_62: system.cpu progress event, total committed:9980396, progress insts committed: 307, IPC: 0000.307
33620000000: Event_62: system.cpu progress event, total committed:9980680, progress insts committed: 284, IPC: 0000.284
33621000000: Event_62: system.cpu progress event, total committed:9980974, progress insts committed: 294, IPC: 0000.294
33622000000: Event_62: system.cpu progress event, total committed:9981275, progress insts committed: 301, IPC: 0000.301
33623000000: Event_62: system.cpu progress event, total committed:9981554, progress insts committed: 279, IPC: 0000.279
33624000000: Event_62: system.cpu progress event, total committed:9981853, progress insts committed: 299, IPC: 0000.299
33625000000: Event_62: system.cpu progress event, total committed:9982146, progress insts committed: 293, IPC: 0000.293
33626000000: Event_62: system.cpu progress event, total committed:9982444, progress insts committed: 298, IPC: 0000.298
33627000000: Event_62: system.cpu progress event, total committed:9982746, progress insts committed: 302, IPC: 0000.302
33628000000: Event_62: system.cpu progress event, total committed:9983034, progress insts committed: 288, IPC: 0000.288
33629000000: Event_62: system.cpu progress event, total committed:9983335, progress insts committed: 301, IPC: 0000.301
33630000000: Event_62: system.cpu progress event, total committed:9983636, progress insts committed: 301, IPC: 0000.301
33631000000: Event_62: system.cpu progress event, total committed:9983939, progress insts committed: 303, IPC: 0000.303
33632000000: Event_62: system.cpu progress event, total committed:9984240, progress insts committed: 301, IPC: 0000.301
33633000000: Event_62: system.cpu progress event, total committed:9984532, progress insts committed: 292, IPC: 0000.292
33634000000: Event_62: system.cpu progress event, total committed:9984830, progress insts committed: 298, IPC: 0000.298
33635000000: Event_62: system.cpu progress event, total committed:9985134, progress insts committed: 304, IPC: 0000.304
33636000000: Event_62: system.cpu progress event, total committed:9985436, progress insts committed: 302, IPC: 0000.302
33637000000: Event_62: system.cpu progress event, total committed:9985738, progress insts committed: 302, IPC: 0000.302
33638000000: Event_62: system.cpu progress event, total committed:9986041, progress insts committed: 303, IPC: 0000.303
33639000000: Event_62: system.cpu progress event, total committed:9986339, progress insts committed: 298, IPC: 0000.298
33640000000: Event_62: system.cpu progress event, total committed:9986632, progress insts committed: 293, IPC: 0000.293
33641000000: Event_62: system.cpu progress event, total committed:9986931, progress insts committed: 299, IPC: 0000.299
33642000000: Event_62: system.cpu progress event, total committed:9987218, progress insts committed: 287, IPC: 0000.287
33643000000: Event_62: system.cpu progress event, total committed:9987520, progress insts committed: 302, IPC: 0000.302
33644000000: Event_62: system.cpu progress event, total committed:9987817, progress insts committed: 297, IPC: 0000.297
33645000000: Event_62: system.cpu progress event, total committed:9988123, progress insts committed: 306, IPC: 0000.306
33646000000: Event_62: system.cpu progress event, total committed:9988432, progress insts committed: 309, IPC: 0000.309
33647000000: Event_62: system.cpu progress event, total committed:9988729, progress insts committed: 297, IPC: 0000.297
33648000000: Event_62: system.cpu progress event, total committed:9989022, progress insts committed: 293, IPC: 0000.293
33649000000: Event_62: system.cpu progress event, total committed:9989316, progress insts committed: 294, IPC: 0000.294
33650000000: Event_62: system.cpu progress event, total committed:9989602, progress insts committed: 286, IPC: 0000.286
33651000000: Event_62: system.cpu progress event, total committed:9989904, progress insts committed: 302, IPC: 0000.302
33652000000: Event_62: system.cpu progress event, total committed:9990206, progress insts committed: 302, IPC: 0000.302
33653000000: Event_62: system.cpu progress event, total committed:9990508, progress insts committed: 302, IPC: 0000.302
33654000000: Event_62: system.cpu progress event, total committed:9990810, progress insts committed: 302, IPC: 0000.302
33655000000: Event_62: system.cpu progress event, total committed:9991100, progress insts committed: 290, IPC: 00000.29
33656000000: Event_62: system.cpu progress event, total committed:9991403, progress insts committed: 303, IPC: 0000.303
33657000000: Event_62: system.cpu progress event, total committed:9991706, progress insts committed: 303, IPC: 0000.303
33658000000: Event_62: system.cpu progress event, total committed:9992008, progress insts committed: 302, IPC: 0000.302
33659000000: Event_62: system.cpu progress event, total committed:9992311, progress insts committed: 303, IPC: 0000.303
33660000000: Event_62: system.cpu progress event, total committed:9992610, progress insts committed: 299, IPC: 0000.299
33661000000: Event_62: system.cpu progress event, total committed:9992908, progress insts committed: 298, IPC: 0000.298
33662000000: Event_62: system.cpu progress event, total committed:9993192, progress insts committed: 284, IPC: 0000.284
33663000000: Event_62: system.cpu progress event, total committed:9993484, progress insts committed: 292, IPC: 0000.292
33664000000: Event_62: system.cpu progress event, total committed:9993780, progress insts committed: 296, IPC: 0000.296
33665000000: Event_62: system.cpu progress event, total committed:9994082, progress insts committed: 302, IPC: 0000.302
33666000000: Event_62: system.cpu progress event, total committed:9994376, progress insts committed: 294, IPC: 0000.294
33667000000: Event_62: system.cpu progress event, total committed:9994672, progress insts committed: 296, IPC: 0000.296
33668000000: Event_62: system.cpu progress event, total committed:9994975, progress insts committed: 303, IPC: 0000.303
33669000000: Event_62: system.cpu progress event, total committed:9995281, progress insts committed: 306, IPC: 0000.306
33670000000: Event_62: system.cpu progress event, total committed:9995586, progress insts committed: 305, IPC: 0000.305
33671000000: Event_62: system.cpu progress event, total committed:9995880, progress insts committed: 294, IPC: 0000.294
33672000000: Event_62: system.cpu progress event, total committed:9996175, progress insts committed: 295, IPC: 0000.295
33673000000: Event_62: system.cpu progress event, total committed:9996478, progress insts committed: 303, IPC: 0000.303
33674000000: Event_62: system.cpu progress event, total committed:9996780, progress insts committed: 302, IPC: 0000.302
33675000000: Event_62: system.cpu progress event, total committed:9997082, progress insts committed: 302, IPC: 0000.302
33676000000: Event_62: system.cpu progress event, total committed:9997384, progress insts committed: 302, IPC: 0000.302
33677000000: Event_62: system.cpu progress event, total committed:9997678, progress insts committed: 294, IPC: 0000.294
33678000000: Event_62: system.cpu progress event, total committed:9997981, progress insts committed: 303, IPC: 0000.303
33679000000: Event_62: system.cpu progress event, total committed:9998284, progress insts committed: 303, IPC: 0000.303
33680000000: Event_62: system.cpu progress event, total committed:9998586, progress insts committed: 302, IPC: 0000.302
33681000000: Event_62: system.cpu progress event, total committed:9998885, progress insts committed: 299, IPC: 0000.299
33682000000: Event_62: system.cpu progress event, total committed:9999187, progress insts committed: 302, IPC: 0000.302
33683000000: Event_62: system.cpu progress event, total committed:9999484, progress insts committed: 297, IPC: 0000.297
33684000000: Event_62: system.cpu progress event, total committed:9999774, progress insts committed: 290, IPC: 00000.29
Exiting @ tick 33684807000 because a thread reached the max instruction count
