gem5 Simulator System.  https://www.gem5.org
gem5 is copyrighted software; use the --copyright option for details.

gem5 version 23.0.0.1
gem5 compiled Jan 26 2026 00:01:36
gem5 started Feb 10 2026 20:29:31
gem5 executing on notebook, pid 81330
command line: /opt/gem5/build/RISCV/gem5.opt -r -d /home/xfalc/arq/TP4_EX4/m5out/q4/A7/L1_8kB/blowfish_dec /home/xfalc/arq/TP4_EX4/gem5/se_A7_q4.py --l1 8kB --maxinsts 10000000 --progress 1000000 --cmd /home/xfalc/arq/TP4_EX4/bench/bin/bf --options d /home/xfalc/arq/TP4_EX4/m5out/q4/A7/L1_8kB/blowfish_enc/output_small.enc /home/xfalc/arq/TP4_EX4/m5out/q4/A7/L1_8kB/blowfish_dec/output_small.asc 1234567890abcdeffedcba0987654321

Global frequency set at 1000000000000 ticks per second
src/mem/dram_interface.cc:690: warn: DRAM device capacity (8192 Mbytes) does not match the address range assigned (2048 Mbytes)
src/base/statistics.hh:279: warn: One of the stats is a legacy stat. Legacy stat is a stat that does not belong to any statistics::Group. Legacy stat is deprecated.
system.remote_gdb: Listening for connections on port 7000
src/sim/simulate.cc:194: info: Entering event queue @ 0.  Starting simulation...
1000000: Event_62: system.cpu progress event, total committed:69, progress insts committed: 69, IPC: 0000.069
2000000: Event_62: system.cpu progress event, total committed:202, progress insts committed: 133, IPC: 0000.133
3000000: Event_62: system.cpu progress event, total committed:305, progress insts committed: 103, IPC: 0000.103
4000000: Event_62: system.cpu progress event, total committed:361, progress insts committed: 56, IPC: 0000.056
5000000: Event_62: system.cpu progress event, total committed:408, progress insts committed: 47, IPC: 0000.047
6000000: Event_62: system.cpu progress event, total committed:496, progress insts committed: 88, IPC: 0000.088
7000000: Event_62: system.cpu progress event, total committed:579, progress insts committed: 83, IPC: 0000.083
src/sim/syscall_emul.cc:85: warn: ignoring syscall set_robust_list(...)
      (further warnings will be suppressed)
8000000: Event_62: system.cpu progress event, total committed:674, progress insts committed: 95, IPC: 0000.095
9000000: Event_62: system.cpu progress event, total committed:785, progress insts committed: 111, IPC: 0000.111
10000000: Event_62: system.cpu progress event, total committed:859, progress insts committed: 74, IPC: 0000.074
11000000: Event_62: system.cpu progress event, total committed:965, progress insts committed: 106, IPC: 0000.106
src/sim/syscall_emul.hh:1014: warn: readlink() called on '/proc/self/exe' may yield unexpected results in various settings.
      Returning '/home/xfalc/arq/TP4_EX4/bench/bin/bf'
src/sim/mem_state.cc:443: info: Increasing stack size by one page.
12000000: Event_62: system.cpu progress event, total committed:1053, progress insts committed: 88, IPC: 0000.088
13000000: Event_62: system.cpu progress event, total committed:1116, progress insts committed: 63, IPC: 0000.063
14000000: Event_62: system.cpu progress event, total committed:1302, progress insts committed: 186, IPC: 0000.186
15000000: Event_62: system.cpu progress event, total committed:1486, progress insts committed: 184, IPC: 0000.184
16000000: Event_62: system.cpu progress event, total committed:1626, progress insts committed: 140, IPC: 00000.14
17000000: Event_62: system.cpu progress event, total committed:1741, progress insts committed: 115, IPC: 0000.115
18000000: Event_62: system.cpu progress event, total committed:1857, progress insts committed: 116, IPC: 0000.116
19000000: Event_62: system.cpu progress event, total committed:1968, progress insts committed: 111, IPC: 0000.111
20000000: Event_62: system.cpu progress event, total committed:2043, progress insts committed: 75, IPC: 0000.075
21000000: Event_62: system.cpu progress event, total committed:2099, progress insts committed: 56, IPC: 0000.056
22000000: Event_62: system.cpu progress event, total committed:2184, progress insts committed: 85, IPC: 0000.085
23000000: Event_62: system.cpu progress event, total committed:2259, progress insts committed: 75, IPC: 0000.075
24000000: Event_62: system.cpu progress event, total committed:2356, progress insts committed: 97, IPC: 0000.097
25000000: Event_62: system.cpu progress event, total committed:2464, progress insts committed: 108, IPC: 0000.108
26000000: Event_62: system.cpu progress event, total committed:2592, progress insts committed: 128, IPC: 0000.128
27000000: Event_62: system.cpu progress event, total committed:2780, progress insts committed: 188, IPC: 0000.188
28000000: Event_62: system.cpu progress event, total committed:2900, progress insts committed: 120, IPC: 00000.12
29000000: Event_62: system.cpu progress event, total committed:2987, progress insts committed: 87, IPC: 0000.087
30000000: Event_62: system.cpu progress event, total committed:3194, progress insts committed: 207, IPC: 0000.207
31000000: Event_62: system.cpu progress event, total committed:3455, progress insts committed: 261, IPC: 0000.261
32000000: Event_62: system.cpu progress event, total committed:3603, progress insts committed: 148, IPC: 0000.148
33000000: Event_62: system.cpu progress event, total committed:3732, progress insts committed: 129, IPC: 0000.129
34000000: Event_62: system.cpu progress event, total committed:3961, progress insts committed: 229, IPC: 0000.229
35000000: Event_62: system.cpu progress event, total committed:4029, progress insts committed: 68, IPC: 0000.068
36000000: Event_62: system.cpu progress event, total committed:4159, progress insts committed: 130, IPC: 00000.13
37000000: Event_62: system.cpu progress event, total committed:4415, progress insts committed: 256, IPC: 0000.256
38000000: Event_62: system.cpu progress event, total committed:4597, progress insts committed: 182, IPC: 0000.182
src/sim/syscall_emul.cc:74: warn: ignoring syscall mprotect(...)
39000000: Event_62: system.cpu progress event, total committed:4689, progress insts committed: 92, IPC: 0000.092
40000000: Event_62: system.cpu progress event, total committed:4826, progress insts committed: 137, IPC: 0000.137
41000000: Event_62: system.cpu progress event, total committed:4898, progress insts committed: 72, IPC: 0000.072
42000000: Event_62: system.cpu progress event, total committed:5004, progress insts committed: 106, IPC: 0000.106
43000000: Event_62: system.cpu progress event, total committed:5075, progress insts committed: 71, IPC: 0000.071
44000000: Event_62: system.cpu progress event, total committed:5272, progress insts committed: 197, IPC: 0000.197
45000000: Event_62: system.cpu progress event, total committed:5361, progress insts committed: 89, IPC: 0000.089
46000000: Event_62: system.cpu progress event, total committed:5492, progress insts committed: 131, IPC: 0000.131
47000000: Event_62: system.cpu progress event, total committed:5546, progress insts committed: 54, IPC: 0000.054
48000000: Event_62: system.cpu progress event, total committed:5658, progress insts committed: 112, IPC: 0000.112
49000000: Event_62: system.cpu progress event, total committed:5897, progress insts committed: 239, IPC: 0000.239
50000000: Event_62: system.cpu progress event, total committed:6125, progress insts committed: 228, IPC: 0000.228
51000000: Event_62: system.cpu progress event, total committed:6385, progress insts committed: 260, IPC: 00000.26
52000000: Event_62: system.cpu progress event, total committed:6616, progress insts committed: 231, IPC: 0000.231
53000000: Event_62: system.cpu progress event, total committed:6862, progress insts committed: 246, IPC: 0000.246
54000000: Event_62: system.cpu progress event, total committed:7126, progress insts committed: 264, IPC: 0000.264
55000000: Event_62: system.cpu progress event, total committed:7366, progress insts committed: 240, IPC: 00000.24
56000000: Event_62: system.cpu progress event, total committed:7612, progress insts committed: 246, IPC: 0000.246
57000000: Event_62: system.cpu progress event, total committed:7880, progress insts committed: 268, IPC: 0000.268
58000000: Event_62: system.cpu progress event, total committed:8146, progress insts committed: 266, IPC: 0000.266
59000000: Event_62: system.cpu progress event, total committed:8399, progress insts committed: 253, IPC: 0000.253
60000000: Event_62: system.cpu progress event, total committed:8639, progress insts committed: 240, IPC: 00000.24
61000000: Event_62: system.cpu progress event, total committed:8906, progress insts committed: 267, IPC: 0000.267
62000000: Event_62: system.cpu progress event, total committed:9194, progress insts committed: 288, IPC: 0000.288
63000000: Event_62: system.cpu progress event, total committed:9457, progress insts committed: 263, IPC: 0000.263
64000000: Event_62: system.cpu progress event, total committed:9702, progress insts committed: 245, IPC: 0000.245
65000000: Event_62: system.cpu progress event, total committed:9959, progress insts committed: 257, IPC: 0000.257
66000000: Event_62: system.cpu progress event, total committed:10216, progress insts committed: 257, IPC: 0000.257
67000000: Event_62: system.cpu progress event, total committed:10457, progress insts committed: 241, IPC: 0000.241
68000000: Event_62: system.cpu progress event, total committed:10723, progress insts committed: 266, IPC: 0000.266
69000000: Event_62: system.cpu progress event, total committed:10977, progress insts committed: 254, IPC: 0000.254
70000000: Event_62: system.cpu progress event, total committed:11248, progress insts committed: 271, IPC: 0000.271
71000000: Event_62: system.cpu progress event, total committed:11510, progress insts committed: 262, IPC: 0000.262
72000000: Event_62: system.cpu progress event, total committed:11750, progress insts committed: 240, IPC: 00000.24
73000000: Event_62: system.cpu progress event, total committed:12018, progress insts committed: 268, IPC: 0000.268
74000000: Event_62: system.cpu progress event, total committed:12263, progress insts committed: 245, IPC: 0000.245
75000000: Event_62: system.cpu progress event, total committed:12508, progress insts committed: 245, IPC: 0000.245
76000000: Event_62: system.cpu progress event, total committed:12751, progress insts committed: 243, IPC: 0000.243
77000000: Event_62: system.cpu progress event, total committed:12995, progress insts committed: 244, IPC: 0000.244
78000000: Event_62: system.cpu progress event, total committed:13262, progress insts committed: 267, IPC: 0000.267
79000000: Event_62: system.cpu progress event, total committed:13521, progress insts committed: 259, IPC: 0000.259
80000000: Event_62: system.cpu progress event, total committed:13805, progress insts committed: 284, IPC: 0000.284
81000000: Event_62: system.cpu progress event, total committed:14050, progress insts committed: 245, IPC: 0000.245
82000000: Event_62: system.cpu progress event, total committed:14318, progress insts committed: 268, IPC: 0000.268
83000000: Event_62: system.cpu progress event, total committed:14563, progress insts committed: 245, IPC: 0000.245
84000000: Event_62: system.cpu progress event, total committed:14803, progress insts committed: 240, IPC: 00000.24
85000000: Event_62: system.cpu progress event, total committed:15049, progress insts committed: 246, IPC: 0000.246
86000000: Event_62: system.cpu progress event, total committed:15246, progress insts committed: 197, IPC: 0000.197
87000000: Event_62: system.cpu progress event, total committed:15514, progress insts committed: 268, IPC: 0000.268
88000000: Event_62: system.cpu progress event, total committed:15763, progress insts committed: 249, IPC: 0000.249
89000000: Event_62: system.cpu progress event, total committed:16028, progress insts committed: 265, IPC: 0000.265
90000000: Event_62: system.cpu progress event, total committed:16272, progress insts committed: 244, IPC: 0000.244
91000000: Event_62: system.cpu progress event, total committed:16541, progress insts committed: 269, IPC: 0000.269
92000000: Event_62: system.cpu progress event, total committed:16809, progress insts committed: 268, IPC: 0000.268
93000000: Event_62: system.cpu progress event, total committed:17073, progress insts committed: 264, IPC: 0000.264
94000000: Event_62: system.cpu progress event, total committed:17271, progress insts committed: 198, IPC: 0000.198
95000000: Event_62: system.cpu progress event, total committed:17517, progress insts committed: 246, IPC: 0000.246
96000000: Event_62: system.cpu progress event, total committed:17762, progress insts committed: 245, IPC: 0000.245
97000000: Event_62: system.cpu progress event, total committed:18007, progress insts committed: 245, IPC: 0000.245
98000000: Event_62: system.cpu progress event, total committed:18275, progress insts committed: 268, IPC: 0000.268
99000000: Event_62: system.cpu progress event, total committed:18523, progress insts committed: 248, IPC: 0000.248
100000000: Event_62: system.cpu progress event, total committed:18785, progress insts committed: 262, IPC: 0000.262
101000000: Event_62: system.cpu progress event, total committed:19030, progress insts committed: 245, IPC: 0000.245
102000000: Event_62: system.cpu progress event, total committed:19243, progress insts committed: 213, IPC: 0000.213
103000000: Event_62: system.cpu progress event, total committed:19506, progress insts committed: 263, IPC: 0000.263
104000000: Event_62: system.cpu progress event, total committed:19775, progress insts committed: 269, IPC: 0000.269
105000000: Event_62: system.cpu progress event, total committed:20044, progress insts committed: 269, IPC: 0000.269
106000000: Event_62: system.cpu progress event, total committed:20285, progress insts committed: 241, IPC: 0000.241
107000000: Event_62: system.cpu progress event, total committed:20533, progress insts committed: 248, IPC: 0000.248
108000000: Event_62: system.cpu progress event, total committed:20774, progress insts committed: 241, IPC: 0000.241
109000000: Event_62: system.cpu progress event, total committed:21020, progress insts committed: 246, IPC: 0000.246
110000000: Event_62: system.cpu progress event, total committed:21223, progress insts committed: 203, IPC: 0000.203
111000000: Event_62: system.cpu progress event, total committed:21490, progress insts committed: 267, IPC: 0000.267
112000000: Event_62: system.cpu progress event, total committed:21759, progress insts committed: 269, IPC: 0000.269
113000000: Event_62: system.cpu progress event, total committed:22005, progress insts committed: 246, IPC: 0000.246
114000000: Event_62: system.cpu progress event, total committed:22249, progress insts committed: 244, IPC: 0000.244
115000000: Event_62: system.cpu progress event, total committed:22518, progress insts committed: 269, IPC: 0000.269
116000000: Event_62: system.cpu progress event, total committed:22759, progress insts committed: 241, IPC: 0000.241
117000000: Event_62: system.cpu progress event, total committed:23027, progress insts committed: 268, IPC: 0000.268
118000000: Event_62: system.cpu progress event, total committed:23291, progress insts committed: 264, IPC: 0000.264
119000000: Event_62: system.cpu progress event, total committed:23536, progress insts committed: 245, IPC: 0000.245
120000000: Event_62: system.cpu progress event, total committed:23803, progress insts committed: 267, IPC: 0000.267
121000000: Event_62: system.cpu progress event, total committed:24049, progress insts committed: 246, IPC: 0000.246
122000000: Event_62: system.cpu progress event, total committed:24318, progress insts committed: 269, IPC: 0000.269
123000000: Event_62: system.cpu progress event, total committed:24587, progress insts committed: 269, IPC: 0000.269
124000000: Event_62: system.cpu progress event, total committed:24855, progress insts committed: 268, IPC: 0000.268
125000000: Event_62: system.cpu progress event, total committed:25119, progress insts committed: 264, IPC: 0000.264
126000000: Event_62: system.cpu progress event, total committed:25360, progress insts committed: 241, IPC: 0000.241
127000000: Event_62: system.cpu progress event, total committed:25605, progress insts committed: 245, IPC: 0000.245
128000000: Event_62: system.cpu progress event, total committed:25873, progress insts committed: 268, IPC: 0000.268
129000000: Event_62: system.cpu progress event, total committed:26118, progress insts committed: 245, IPC: 0000.245
130000000: Event_62: system.cpu progress event, total committed:26387, progress insts committed: 269, IPC: 0000.269
131000000: Event_62: system.cpu progress event, total committed:26633, progress insts committed: 246, IPC: 0000.246
132000000: Event_62: system.cpu progress event, total committed:26885, progress insts committed: 252, IPC: 0000.252
133000000: Event_62: system.cpu progress event, total committed:27095, progress insts committed: 210, IPC: 00000.21
134000000: Event_62: system.cpu progress event, total committed:27316, progress insts committed: 221, IPC: 0000.221
135000000: Event_62: system.cpu progress event, total committed:27562, progress insts committed: 246, IPC: 0000.246
136000000: Event_62: system.cpu progress event, total committed:27831, progress insts committed: 269, IPC: 0000.269
137000000: Event_62: system.cpu progress event, total committed:28099, progress insts committed: 268, IPC: 0000.268
138000000: Event_62: system.cpu progress event, total committed:28322, progress insts committed: 223, IPC: 0000.223
139000000: Event_62: system.cpu progress event, total committed:28585, progress insts committed: 263, IPC: 0000.263
140000000: Event_62: system.cpu progress event, total committed:28843, progress insts committed: 258, IPC: 0000.258
141000000: Event_62: system.cpu progress event, total committed:29083, progress insts committed: 240, IPC: 00000.24
142000000: Event_62: system.cpu progress event, total committed:29312, progress insts committed: 229, IPC: 0000.229
143000000: Event_62: system.cpu progress event, total committed:29563, progress insts committed: 251, IPC: 0000.251
144000000: Event_62: system.cpu progress event, total committed:29803, progress insts committed: 240, IPC: 00000.24
145000000: Event_62: system.cpu progress event, total committed:30047, progress insts committed: 244, IPC: 0000.244
146000000: Event_62: system.cpu progress event, total committed:30283, progress insts committed: 236, IPC: 0000.236
147000000: Event_62: system.cpu progress event, total committed:30523, progress insts committed: 240, IPC: 00000.24
148000000: Event_62: system.cpu progress event, total committed:30780, progress insts committed: 257, IPC: 0000.257
149000000: Event_62: system.cpu progress event, total committed:31044, progress insts committed: 264, IPC: 0000.264
150000000: Event_62: system.cpu progress event, total committed:31269, progress insts committed: 225, IPC: 0000.225
151000000: Event_62: system.cpu progress event, total committed:31511, progress insts committed: 242, IPC: 0000.242
152000000: Event_62: system.cpu progress event, total committed:31756, progress insts committed: 245, IPC: 0000.245
153000000: Event_62: system.cpu progress event, total committed:32002, progress insts committed: 246, IPC: 0000.246
154000000: Event_62: system.cpu progress event, total committed:32266, progress insts committed: 264, IPC: 0000.264
155000000: Event_62: system.cpu progress event, total committed:32534, progress insts committed: 268, IPC: 0000.268
156000000: Event_62: system.cpu progress event, total committed:32780, progress insts committed: 246, IPC: 0000.246
157000000: Event_62: system.cpu progress event, total committed:33021, progress insts committed: 241, IPC: 0000.241
158000000: Event_62: system.cpu progress event, total committed:33266, progress insts committed: 245, IPC: 0000.245
159000000: Event_62: system.cpu progress event, total committed:33523, progress insts committed: 257, IPC: 0000.257
160000000: Event_62: system.cpu progress event, total committed:33763, progress insts committed: 240, IPC: 00000.24
161000000: Event_62: system.cpu progress event, total committed:34025, progress insts committed: 262, IPC: 0000.262
162000000: Event_62: system.cpu progress event, total committed:34294, progress insts committed: 269, IPC: 0000.269
163000000: Event_62: system.cpu progress event, total committed:34535, progress insts committed: 241, IPC: 0000.241
164000000: Event_62: system.cpu progress event, total committed:34767, progress insts committed: 232, IPC: 0000.232
165000000: Event_62: system.cpu progress event, total committed:35013, progress insts committed: 246, IPC: 0000.246
166000000: Event_62: system.cpu progress event, total committed:35282, progress insts committed: 269, IPC: 0000.269
167000000: Event_62: system.cpu progress event, total committed:35526, progress insts committed: 244, IPC: 0000.244
168000000: Event_62: system.cpu progress event, total committed:35771, progress insts committed: 245, IPC: 0000.245
169000000: Event_62: system.cpu progress event, total committed:36040, progress insts committed: 269, IPC: 0000.269
170000000: Event_62: system.cpu progress event, total committed:36283, progress insts committed: 243, IPC: 0000.243
171000000: Event_62: system.cpu progress event, total committed:36525, progress insts committed: 242, IPC: 0000.242
172000000: Event_62: system.cpu progress event, total committed:36754, progress insts committed: 229, IPC: 0000.229
173000000: Event_62: system.cpu progress event, total committed:37003, progress insts committed: 249, IPC: 0000.249
174000000: Event_62: system.cpu progress event, total committed:37268, progress insts committed: 265, IPC: 0000.265
175000000: Event_62: system.cpu progress event, total committed:37513, progress insts committed: 245, IPC: 0000.245
176000000: Event_62: system.cpu progress event, total committed:37781, progress insts committed: 268, IPC: 0000.268
177000000: Event_62: system.cpu progress event, total committed:38049, progress insts committed: 268, IPC: 0000.268
178000000: Event_62: system.cpu progress event, total committed:38318, progress insts committed: 269, IPC: 0000.269
179000000: Event_62: system.cpu progress event, total committed:38559, progress insts committed: 241, IPC: 0000.241
180000000: Event_62: system.cpu progress event, total committed:38803, progress insts committed: 244, IPC: 0000.244
181000000: Event_62: system.cpu progress event, total committed:39045, progress insts committed: 242, IPC: 0000.242
182000000: Event_62: system.cpu progress event, total committed:39291, progress insts committed: 246, IPC: 0000.246
183000000: Event_62: system.cpu progress event, total committed:39559, progress insts committed: 268, IPC: 0000.268
184000000: Event_62: system.cpu progress event, total committed:39804, progress insts committed: 245, IPC: 0000.245
185000000: Event_62: system.cpu progress event, total committed:40050, progress insts committed: 246, IPC: 0000.246
186000000: Event_62: system.cpu progress event, total committed:40314, progress insts committed: 264, IPC: 0000.264
187000000: Event_62: system.cpu progress event, total committed:40582, progress insts committed: 268, IPC: 0000.268
188000000: Event_62: system.cpu progress event, total committed:40826, progress insts committed: 244, IPC: 0000.244
189000000: Event_62: system.cpu progress event, total committed:41070, progress insts committed: 244, IPC: 0000.244
190000000: Event_62: system.cpu progress event, total committed:41311, progress insts committed: 241, IPC: 0000.241
191000000: Event_62: system.cpu progress event, total committed:41563, progress insts committed: 252, IPC: 0000.252
192000000: Event_62: system.cpu progress event, total committed:41803, progress insts committed: 240, IPC: 00000.24
193000000: Event_62: system.cpu progress event, total committed:42047, progress insts committed: 244, IPC: 0000.244
194000000: Event_62: system.cpu progress event, total committed:42293, progress insts committed: 246, IPC: 0000.246
195000000: Event_62: system.cpu progress event, total committed:42523, progress insts committed: 230, IPC: 00000.23
196000000: Event_62: system.cpu progress event, total committed:42781, progress insts committed: 258, IPC: 0000.258
197000000: Event_62: system.cpu progress event, total committed:43049, progress insts committed: 268, IPC: 0000.268
198000000: Event_62: system.cpu progress event, total committed:43318, progress insts committed: 269, IPC: 0000.269
199000000: Event_62: system.cpu progress event, total committed:43586, progress insts committed: 268, IPC: 0000.268
200000000: Event_62: system.cpu progress event, total committed:43831, progress insts committed: 245, IPC: 0000.245
201000000: Event_62: system.cpu progress event, total committed:44076, progress insts committed: 245, IPC: 0000.245
202000000: Event_62: system.cpu progress event, total committed:44322, progress insts committed: 246, IPC: 0000.246
203000000: Event_62: system.cpu progress event, total committed:44581, progress insts committed: 259, IPC: 0000.259
204000000: Event_62: system.cpu progress event, total committed:44849, progress insts committed: 268, IPC: 0000.268
205000000: Event_62: system.cpu progress event, total committed:45119, progress insts committed: 270, IPC: 00000.27
206000000: Event_62: system.cpu progress event, total committed:45387, progress insts committed: 268, IPC: 0000.268
207000000: Event_62: system.cpu progress event, total committed:45642, progress insts committed: 255, IPC: 0000.255
208000000: Event_62: system.cpu progress event, total committed:45882, progress insts committed: 240, IPC: 00000.24
209000000: Event_62: system.cpu progress event, total committed:46122, progress insts committed: 240, IPC: 00000.24
210000000: Event_62: system.cpu progress event, total committed:46362, progress insts committed: 240, IPC: 00000.24
211000000: Event_62: system.cpu progress event, total committed:46591, progress insts committed: 229, IPC: 0000.229
212000000: Event_62: system.cpu progress event, total committed:46837, progress insts committed: 246, IPC: 0000.246
213000000: Event_62: system.cpu progress event, total committed:47082, progress insts committed: 245, IPC: 0000.245
214000000: Event_62: system.cpu progress event, total committed:47350, progress insts committed: 268, IPC: 0000.268
215000000: Event_62: system.cpu progress event, total committed:47620, progress insts committed: 270, IPC: 00000.27
216000000: Event_62: system.cpu progress event, total committed:47865, progress insts committed: 245, IPC: 0000.245
217000000: Event_62: system.cpu progress event, total committed:48127, progress insts committed: 262, IPC: 0000.262
218000000: Event_62: system.cpu progress event, total committed:48364, progress insts committed: 237, IPC: 0000.237
219000000: Event_62: system.cpu progress event, total committed:48579, progress insts committed: 215, IPC: 0000.215
220000000: Event_62: system.cpu progress event, total committed:48824, progress insts committed: 245, IPC: 0000.245
221000000: Event_62: system.cpu progress event, total committed:49092, progress insts committed: 268, IPC: 0000.268
222000000: Event_62: system.cpu progress event, total committed:49337, progress insts committed: 245, IPC: 0000.245
223000000: Event_62: system.cpu progress event, total committed:49602, progress insts committed: 265, IPC: 0000.265
224000000: Event_62: system.cpu progress event, total committed:49844, progress insts committed: 242, IPC: 0000.242
225000000: Event_62: system.cpu progress event, total committed:50092, progress insts committed: 248, IPC: 0000.248
226000000: Event_62: system.cpu progress event, total committed:50322, progress insts committed: 230, IPC: 00000.23
227000000: Event_62: system.cpu progress event, total committed:50562, progress insts committed: 240, IPC: 00000.24
228000000: Event_62: system.cpu progress event, total committed:50811, progress insts committed: 249, IPC: 0000.249
229000000: Event_62: system.cpu progress event, total committed:51079, progress insts committed: 268, IPC: 0000.268
230000000: Event_62: system.cpu progress event, total committed:51348, progress insts committed: 269, IPC: 0000.269
231000000: Event_62: system.cpu progress event, total committed:51608, progress insts committed: 260, IPC: 00000.26
232000000: Event_62: system.cpu progress event, total committed:51853, progress insts committed: 245, IPC: 0000.245
233000000: Event_62: system.cpu progress event, total committed:52120, progress insts committed: 267, IPC: 0000.267
234000000: Event_62: system.cpu progress event, total committed:52360, progress insts committed: 240, IPC: 00000.24
235000000: Event_62: system.cpu progress event, total committed:52600, progress insts committed: 240, IPC: 00000.24
236000000: Event_62: system.cpu progress event, total committed:52848, progress insts committed: 248, IPC: 0000.248
237000000: Event_62: system.cpu progress event, total committed:53094, progress insts committed: 246, IPC: 0000.246
238000000: Event_62: system.cpu progress event, total committed:53363, progress insts committed: 269, IPC: 0000.269
239000000: Event_62: system.cpu progress event, total committed:53631, progress insts committed: 268, IPC: 0000.268
240000000: Event_62: system.cpu progress event, total committed:53877, progress insts committed: 246, IPC: 0000.246
241000000: Event_62: system.cpu progress event, total committed:54118, progress insts committed: 241, IPC: 0000.241
242000000: Event_62: system.cpu progress event, total committed:54367, progress insts committed: 249, IPC: 0000.249
243000000: Event_62: system.cpu progress event, total committed:54590, progress insts committed: 223, IPC: 0000.223
244000000: Event_62: system.cpu progress event, total committed:54836, progress insts committed: 246, IPC: 0000.246
245000000: Event_62: system.cpu progress event, total committed:55081, progress insts committed: 245, IPC: 0000.245
246000000: Event_62: system.cpu progress event, total committed:55303, progress insts committed: 222, IPC: 0000.222
247000000: Event_62: system.cpu progress event, total committed:55566, progress insts committed: 263, IPC: 0000.263
248000000: Event_62: system.cpu progress event, total committed:55828, progress insts committed: 262, IPC: 0000.262
249000000: Event_62: system.cpu progress event, total committed:56110, progress insts committed: 282, IPC: 0000.282
250000000: Event_62: system.cpu progress event, total committed:56363, progress insts committed: 253, IPC: 0000.253
251000000: Event_62: system.cpu progress event, total committed:56634, progress insts committed: 271, IPC: 0000.271
252000000: Event_62: system.cpu progress event, total committed:56880, progress insts committed: 246, IPC: 0000.246
253000000: Event_62: system.cpu progress event, total committed:57126, progress insts committed: 246, IPC: 0000.246
254000000: Event_62: system.cpu progress event, total committed:57371, progress insts committed: 245, IPC: 0000.245
255000000: Event_62: system.cpu progress event, total committed:57614, progress insts committed: 243, IPC: 0000.243
256000000: Event_62: system.cpu progress event, total committed:57834, progress insts committed: 220, IPC: 00000.22
257000000: Event_62: system.cpu progress event, total committed:58079, progress insts committed: 245, IPC: 0000.245
258000000: Event_62: system.cpu progress event, total committed:58308, progress insts committed: 229, IPC: 0000.229
259000000: Event_62: system.cpu progress event, total committed:58554, progress insts committed: 246, IPC: 0000.246
260000000: Event_62: system.cpu progress event, total committed:58799, progress insts committed: 245, IPC: 0000.245
261000000: Event_62: system.cpu progress event, total committed:59022, progress insts committed: 223, IPC: 0000.223
262000000: Event_62: system.cpu progress event, total committed:59290, progress insts committed: 268, IPC: 0000.268
263000000: Event_62: system.cpu progress event, total committed:59531, progress insts committed: 241, IPC: 0000.241
264000000: Event_62: system.cpu progress event, total committed:59817, progress insts committed: 286, IPC: 0000.286
265000000: Event_62: system.cpu progress event, total committed:60059, progress insts committed: 242, IPC: 0000.242
266000000: Event_62: system.cpu progress event, total committed:60304, progress insts committed: 245, IPC: 0000.245
267000000: Event_62: system.cpu progress event, total committed:60569, progress insts committed: 265, IPC: 0000.265
268000000: Event_62: system.cpu progress event, total committed:60813, progress insts committed: 244, IPC: 0000.244
269000000: Event_62: system.cpu progress event, total committed:61059, progress insts committed: 246, IPC: 0000.246
270000000: Event_62: system.cpu progress event, total committed:61305, progress insts committed: 246, IPC: 0000.246
271000000: Event_62: system.cpu progress event, total committed:61546, progress insts committed: 241, IPC: 0000.241
272000000: Event_62: system.cpu progress event, total committed:61814, progress insts committed: 268, IPC: 0000.268
273000000: Event_62: system.cpu progress event, total committed:62026, progress insts committed: 212, IPC: 0000.212
274000000: Event_62: system.cpu progress event, total committed:62290, progress insts committed: 264, IPC: 0000.264
275000000: Event_62: system.cpu progress event, total committed:62558, progress insts committed: 268, IPC: 0000.268
276000000: Event_62: system.cpu progress event, total committed:62824, progress insts committed: 266, IPC: 0000.266
277000000: Event_62: system.cpu progress event, total committed:63102, progress insts committed: 278, IPC: 0000.278
278000000: Event_62: system.cpu progress event, total committed:63353, progress insts committed: 251, IPC: 0000.251
279000000: Event_62: system.cpu progress event, total committed:63599, progress insts committed: 246, IPC: 0000.246
280000000: Event_62: system.cpu progress event, total committed:63845, progress insts committed: 246, IPC: 0000.246
281000000: Event_62: system.cpu progress event, total committed:64109, progress insts committed: 264, IPC: 0000.264
282000000: Event_62: system.cpu progress event, total committed:64332, progress insts committed: 223, IPC: 0000.223
283000000: Event_62: system.cpu progress event, total committed:64599, progress insts committed: 267, IPC: 0000.267
284000000: Event_62: system.cpu progress event, total committed:64867, progress insts committed: 268, IPC: 0000.268
285000000: Event_62: system.cpu progress event, total committed:65116, progress insts committed: 249, IPC: 0000.249
286000000: Event_62: system.cpu progress event, total committed:65358, progress insts committed: 242, IPC: 0000.242
287000000: Event_62: system.cpu progress event, total committed:65622, progress insts committed: 264, IPC: 0000.264
288000000: Event_62: system.cpu progress event, total committed:65867, progress insts committed: 245, IPC: 0000.245
289000000: Event_62: system.cpu progress event, total committed:66086, progress insts committed: 219, IPC: 0000.219
290000000: Event_62: system.cpu progress event, total committed:66354, progress insts committed: 268, IPC: 0000.268
291000000: Event_62: system.cpu progress event, total committed:66623, progress insts committed: 269, IPC: 0000.269
292000000: Event_62: system.cpu progress event, total committed:66891, progress insts committed: 268, IPC: 0000.268
293000000: Event_62: system.cpu progress event, total committed:67137, progress insts committed: 246, IPC: 0000.246
294000000: Event_62: system.cpu progress event, total committed:67396, progress insts committed: 259, IPC: 0000.259
295000000: Event_62: system.cpu progress event, total committed:67645, progress insts committed: 249, IPC: 0000.249
296000000: Event_62: system.cpu progress event, total committed:67913, progress insts committed: 268, IPC: 0000.268
297000000: Event_62: system.cpu progress event, total committed:68178, progress insts committed: 265, IPC: 0000.265
298000000: Event_62: system.cpu progress event, total committed:68469, progress insts committed: 291, IPC: 0000.291
299000000: Event_62: system.cpu progress event, total committed:68714, progress insts committed: 245, IPC: 0000.245
300000000: Event_62: system.cpu progress event, total committed:68959, progress insts committed: 245, IPC: 0000.245
301000000: Event_62: system.cpu progress event, total committed:69204, progress insts committed: 245, IPC: 0000.245
302000000: Event_62: system.cpu progress event, total committed:69473, progress insts committed: 269, IPC: 0000.269
303000000: Event_62: system.cpu progress event, total committed:69741, progress insts committed: 268, IPC: 0000.268
304000000: Event_62: system.cpu progress event, total committed:69918, progress insts committed: 177, IPC: 0000.177
305000000: Event_62: system.cpu progress event, total committed:70183, progress insts committed: 265, IPC: 0000.265
306000000: Event_62: system.cpu progress event, total committed:70422, progress insts committed: 239, IPC: 0000.239
307000000: Event_62: system.cpu progress event, total committed:70662, progress insts committed: 240, IPC: 00000.24
308000000: Event_62: system.cpu progress event, total committed:70902, progress insts committed: 240, IPC: 00000.24
309000000: Event_62: system.cpu progress event, total committed:71165, progress insts committed: 263, IPC: 0000.263
310000000: Event_62: system.cpu progress event, total committed:71429, progress insts committed: 264, IPC: 0000.264
311000000: Event_62: system.cpu progress event, total committed:71678, progress insts committed: 249, IPC: 0000.249
312000000: Event_62: system.cpu progress event, total committed:71899, progress insts committed: 221, IPC: 0000.221
313000000: Event_62: system.cpu progress event, total committed:72167, progress insts committed: 268, IPC: 0000.268
314000000: Event_62: system.cpu progress event, total committed:72413, progress insts committed: 246, IPC: 0000.246
315000000: Event_62: system.cpu progress event, total committed:72659, progress insts committed: 246, IPC: 0000.246
316000000: Event_62: system.cpu progress event, total committed:72916, progress insts committed: 257, IPC: 0000.257
317000000: Event_62: system.cpu progress event, total committed:73149, progress insts committed: 233, IPC: 0000.233
318000000: Event_62: system.cpu progress event, total committed:73396, progress insts committed: 247, IPC: 0000.247
319000000: Event_62: system.cpu progress event, total committed:73636, progress insts committed: 240, IPC: 00000.24
320000000: Event_62: system.cpu progress event, total committed:73803, progress insts committed: 167, IPC: 0000.167
321000000: Event_62: system.cpu progress event, total committed:74048, progress insts committed: 245, IPC: 0000.245
322000000: Event_62: system.cpu progress event, total committed:74294, progress insts committed: 246, IPC: 0000.246
323000000: Event_62: system.cpu progress event, total committed:74538, progress insts committed: 244, IPC: 0000.244
324000000: Event_62: system.cpu progress event, total committed:74806, progress insts committed: 268, IPC: 0000.268
325000000: Event_62: system.cpu progress event, total committed:75047, progress insts committed: 241, IPC: 0000.241
326000000: Event_62: system.cpu progress event, total committed:75293, progress insts committed: 246, IPC: 0000.246
327000000: Event_62: system.cpu progress event, total committed:75539, progress insts committed: 246, IPC: 0000.246
328000000: Event_62: system.cpu progress event, total committed:75707, progress insts committed: 168, IPC: 0000.168
329000000: Event_62: system.cpu progress event, total committed:75976, progress insts committed: 269, IPC: 0000.269
330000000: Event_62: system.cpu progress event, total committed:76239, progress insts committed: 263, IPC: 0000.263
331000000: Event_62: system.cpu progress event, total committed:76485, progress insts committed: 246, IPC: 0000.246
332000000: Event_62: system.cpu progress event, total committed:76753, progress insts committed: 268, IPC: 0000.268
333000000: Event_62: system.cpu progress event, total committed:76998, progress insts committed: 245, IPC: 0000.245
334000000: Event_62: system.cpu progress event, total committed:77262, progress insts committed: 264, IPC: 0000.264
335000000: Event_62: system.cpu progress event, total committed:77476, progress insts committed: 214, IPC: 0000.214
336000000: Event_62: system.cpu progress event, total committed:77673, progress insts committed: 197, IPC: 0000.197
337000000: Event_62: system.cpu progress event, total committed:77941, progress insts committed: 268, IPC: 0000.268
338000000: Event_62: system.cpu progress event, total committed:78185, progress insts committed: 244, IPC: 0000.244
339000000: Event_62: system.cpu progress event, total committed:78436, progress insts committed: 251, IPC: 0000.251
340000000: Event_62: system.cpu progress event, total committed:78676, progress insts committed: 240, IPC: 00000.24
341000000: Event_62: system.cpu progress event, total committed:78941, progress insts committed: 265, IPC: 0000.265
342000000: Event_62: system.cpu progress event, total committed:79185, progress insts committed: 244, IPC: 0000.244
343000000: Event_62: system.cpu progress event, total committed:79414, progress insts committed: 229, IPC: 0000.229
344000000: Event_62: system.cpu progress event, total committed:79659, progress insts committed: 245, IPC: 0000.245
345000000: Event_62: system.cpu progress event, total committed:79904, progress insts committed: 245, IPC: 0000.245
346000000: Event_62: system.cpu progress event, total committed:80142, progress insts committed: 238, IPC: 0000.238
347000000: Event_62: system.cpu progress event, total committed:80382, progress insts committed: 240, IPC: 00000.24
348000000: Event_62: system.cpu progress event, total committed:80613, progress insts committed: 231, IPC: 0000.231
349000000: Event_62: system.cpu progress event, total committed:80881, progress insts committed: 268, IPC: 0000.268
350000000: Event_62: system.cpu progress event, total committed:81127, progress insts committed: 246, IPC: 0000.246
351000000: Event_62: system.cpu progress event, total committed:81391, progress insts committed: 264, IPC: 0000.264
352000000: Event_62: system.cpu progress event, total committed:81614, progress insts committed: 223, IPC: 0000.223
353000000: Event_62: system.cpu progress event, total committed:81881, progress insts committed: 267, IPC: 0000.267
354000000: Event_62: system.cpu progress event, total committed:82126, progress insts committed: 245, IPC: 0000.245
355000000: Event_62: system.cpu progress event, total committed:82395, progress insts committed: 269, IPC: 0000.269
356000000: Event_62: system.cpu progress event, total committed:82617, progress insts committed: 222, IPC: 0000.222
357000000: Event_62: system.cpu progress event, total committed:82876, progress insts committed: 259, IPC: 0000.259
358000000: Event_62: system.cpu progress event, total committed:83126, progress insts committed: 250, IPC: 00000.25
359000000: Event_62: system.cpu progress event, total committed:83365, progress insts committed: 239, IPC: 0000.239
360000000: Event_62: system.cpu progress event, total committed:83633, progress insts committed: 268, IPC: 0000.268
361000000: Event_62: system.cpu progress event, total committed:83901, progress insts committed: 268, IPC: 0000.268
362000000: Event_62: system.cpu progress event, total committed:84125, progress insts committed: 224, IPC: 0000.224
363000000: Event_62: system.cpu progress event, total committed:84393, progress insts committed: 268, IPC: 0000.268
364000000: Event_62: system.cpu progress event, total committed:84661, progress insts committed: 268, IPC: 0000.268
365000000: Event_62: system.cpu progress event, total committed:84916, progress insts committed: 255, IPC: 0000.255
366000000: Event_62: system.cpu progress event, total committed:85147, progress insts committed: 231, IPC: 0000.231
367000000: Event_62: system.cpu progress event, total committed:85353, progress insts committed: 206, IPC: 0000.206
368000000: Event_62: system.cpu progress event, total committed:85598, progress insts committed: 245, IPC: 0000.245
369000000: Event_62: system.cpu progress event, total committed:85843, progress insts committed: 245, IPC: 0000.245
370000000: Event_62: system.cpu progress event, total committed:86111, progress insts committed: 268, IPC: 0000.268
371000000: Event_62: system.cpu progress event, total committed:86356, progress insts committed: 245, IPC: 0000.245
372000000: Event_62: system.cpu progress event, total committed:86624, progress insts committed: 268, IPC: 0000.268
373000000: Event_62: system.cpu progress event, total committed:86865, progress insts committed: 241, IPC: 0000.241
374000000: Event_62: system.cpu progress event, total committed:87076, progress insts committed: 211, IPC: 0000.211
375000000: Event_62: system.cpu progress event, total committed:87316, progress insts committed: 240, IPC: 00000.24
376000000: Event_62: system.cpu progress event, total committed:87561, progress insts committed: 245, IPC: 0000.245
377000000: Event_62: system.cpu progress event, total committed:87822, progress insts committed: 261, IPC: 0000.261
378000000: Event_62: system.cpu progress event, total committed:88075, progress insts committed: 253, IPC: 0000.253
379000000: Event_62: system.cpu progress event, total committed:88343, progress insts committed: 268, IPC: 0000.268
380000000: Event_62: system.cpu progress event, total committed:88589, progress insts committed: 246, IPC: 0000.246
381000000: Event_62: system.cpu progress event, total committed:88853, progress insts committed: 264, IPC: 0000.264
382000000: Event_62: system.cpu progress event, total committed:89035, progress insts committed: 182, IPC: 0000.182
383000000: Event_62: system.cpu progress event, total committed:89281, progress insts committed: 246, IPC: 0000.246
384000000: Event_62: system.cpu progress event, total committed:89527, progress insts committed: 246, IPC: 0000.246
385000000: Event_62: system.cpu progress event, total committed:89772, progress insts committed: 245, IPC: 0000.245
386000000: Event_62: system.cpu progress event, total committed:90017, progress insts committed: 245, IPC: 0000.245
387000000: Event_62: system.cpu progress event, total committed:90285, progress insts committed: 268, IPC: 0000.268
388000000: Event_62: system.cpu progress event, total committed:90549, progress insts committed: 264, IPC: 0000.264
389000000: Event_62: system.cpu progress event, total committed:90771, progress insts committed: 222, IPC: 0000.222
390000000: Event_62: system.cpu progress event, total committed:90999, progress insts committed: 228, IPC: 0000.228
391000000: Event_62: system.cpu progress event, total committed:91222, progress insts committed: 223, IPC: 0000.223
392000000: Event_62: system.cpu progress event, total committed:91490, progress insts committed: 268, IPC: 0000.268
393000000: Event_62: system.cpu progress event, total committed:91756, progress insts committed: 266, IPC: 0000.266
394000000: Event_62: system.cpu progress event, total committed:91999, progress insts committed: 243, IPC: 0000.243
395000000: Event_62: system.cpu progress event, total committed:92244, progress insts committed: 245, IPC: 0000.245
396000000: Event_62: system.cpu progress event, total committed:92476, progress insts committed: 232, IPC: 0000.232
397000000: Event_62: system.cpu progress event, total committed:92736, progress insts committed: 260, IPC: 00000.26
398000000: Event_62: system.cpu progress event, total committed:92956, progress insts committed: 220, IPC: 00000.22
399000000: Event_62: system.cpu progress event, total committed:93222, progress insts committed: 266, IPC: 0000.266
400000000: Event_62: system.cpu progress event, total committed:93467, progress insts committed: 245, IPC: 0000.245
401000000: Event_62: system.cpu progress event, total committed:93736, progress insts committed: 269, IPC: 0000.269
402000000: Event_62: system.cpu progress event, total committed:94003, progress insts committed: 267, IPC: 0000.267
403000000: Event_62: system.cpu progress event, total committed:94249, progress insts committed: 246, IPC: 0000.246
404000000: Event_62: system.cpu progress event, total committed:94490, progress insts committed: 241, IPC: 0000.241
405000000: Event_62: system.cpu progress event, total committed:94756, progress insts committed: 266, IPC: 0000.266
406000000: Event_62: system.cpu progress event, total committed:94973, progress insts committed: 217, IPC: 0000.217
407000000: Event_62: system.cpu progress event, total committed:95219, progress insts committed: 246, IPC: 0000.246
408000000: Event_62: system.cpu progress event, total committed:95476, progress insts committed: 257, IPC: 0000.257
409000000: Event_62: system.cpu progress event, total committed:95718, progress insts committed: 242, IPC: 0000.242
410000000: Event_62: system.cpu progress event, total committed:95978, progress insts committed: 260, IPC: 00000.26
411000000: Event_62: system.cpu progress event, total committed:96223, progress insts committed: 245, IPC: 0000.245
412000000: Event_62: system.cpu progress event, total committed:96487, progress insts committed: 264, IPC: 0000.264
413000000: Event_62: system.cpu progress event, total committed:96676, progress insts committed: 189, IPC: 0000.189
414000000: Event_62: system.cpu progress event, total committed:96938, progress insts committed: 262, IPC: 0000.262
415000000: Event_62: system.cpu progress event, total committed:97184, progress insts committed: 246, IPC: 0000.246
416000000: Event_62: system.cpu progress event, total committed:97452, progress insts committed: 268, IPC: 0000.268
417000000: Event_62: system.cpu progress event, total committed:97674, progress insts committed: 222, IPC: 0000.222
418000000: Event_62: system.cpu progress event, total committed:97943, progress insts committed: 269, IPC: 0000.269
419000000: Event_62: system.cpu progress event, total committed:98183, progress insts committed: 240, IPC: 00000.24
420000000: Event_62: system.cpu progress event, total committed:98429, progress insts committed: 246, IPC: 0000.246
421000000: Event_62: system.cpu progress event, total committed:98634, progress insts committed: 205, IPC: 0000.205
422000000: Event_62: system.cpu progress event, total committed:98903, progress insts committed: 269, IPC: 0000.269
423000000: Event_62: system.cpu progress event, total committed:99148, progress insts committed: 245, IPC: 0000.245
424000000: Event_62: system.cpu progress event, total committed:99416, progress insts committed: 268, IPC: 0000.268
425000000: Event_62: system.cpu progress event, total committed:99661, progress insts committed: 245, IPC: 0000.245
426000000: Event_62: system.cpu progress event, total committed:99916, progress insts committed: 255, IPC: 0000.255
427000000: Event_62: system.cpu progress event, total committed:100156, progress insts committed: 240, IPC: 00000.24
428000000: Event_62: system.cpu progress event, total committed:100416, progress insts committed: 260, IPC: 00000.26
429000000: Event_62: system.cpu progress event, total committed:100621, progress insts committed: 205, IPC: 0000.205
430000000: Event_62: system.cpu progress event, total committed:100876, progress insts committed: 255, IPC: 0000.255
431000000: Event_62: system.cpu progress event, total committed:101135, progress insts committed: 259, IPC: 0000.259
432000000: Event_62: system.cpu progress event, total committed:101403, progress insts committed: 268, IPC: 0000.268
433000000: Event_62: system.cpu progress event, total committed:101672, progress insts committed: 269, IPC: 0000.269
434000000: Event_62: system.cpu progress event, total committed:101917, progress insts committed: 245, IPC: 0000.245
435000000: Event_62: system.cpu progress event, total committed:102158, progress insts committed: 241, IPC: 0000.241
436000000: Event_62: system.cpu progress event, total committed:102425, progress insts committed: 267, IPC: 0000.267
437000000: Event_62: system.cpu progress event, total committed:102582, progress insts committed: 157, IPC: 0000.157
438000000: Event_62: system.cpu progress event, total committed:102830, progress insts committed: 248, IPC: 0000.248
439000000: Event_62: system.cpu progress event, total committed:103099, progress insts committed: 269, IPC: 0000.269
440000000: Event_62: system.cpu progress event, total committed:103322, progress insts committed: 223, IPC: 0000.223
441000000: Event_62: system.cpu progress event, total committed:103590, progress insts committed: 268, IPC: 0000.268
442000000: Event_62: system.cpu progress event, total committed:103831, progress insts committed: 241, IPC: 0000.241
443000000: Event_62: system.cpu progress event, total committed:104076, progress insts committed: 245, IPC: 0000.245
444000000: Event_62: system.cpu progress event, total committed:104321, progress insts committed: 245, IPC: 0000.245
445000000: Event_62: system.cpu progress event, total committed:104585, progress insts committed: 264, IPC: 0000.264
446000000: Event_62: system.cpu progress event, total committed:104836, progress insts committed: 251, IPC: 0000.251
447000000: Event_62: system.cpu progress event, total committed:105094, progress insts committed: 258, IPC: 0000.258
448000000: Event_62: system.cpu progress event, total committed:105363, progress insts committed: 269, IPC: 0000.269
449000000: Event_62: system.cpu progress event, total committed:105609, progress insts committed: 246, IPC: 0000.246
450000000: Event_62: system.cpu progress event, total committed:105877, progress insts committed: 268, IPC: 0000.268
451000000: Event_62: system.cpu progress event, total committed:106121, progress insts committed: 244, IPC: 0000.244
452000000: Event_62: system.cpu progress event, total committed:106317, progress insts committed: 196, IPC: 0000.196
453000000: Event_62: system.cpu progress event, total committed:106585, progress insts committed: 268, IPC: 0000.268
454000000: Event_62: system.cpu progress event, total committed:106853, progress insts committed: 268, IPC: 0000.268
455000000: Event_62: system.cpu progress event, total committed:107116, progress insts committed: 263, IPC: 0000.263
456000000: Event_62: system.cpu progress event, total committed:107358, progress insts committed: 242, IPC: 0000.242
457000000: Event_62: system.cpu progress event, total committed:107613, progress insts committed: 255, IPC: 0000.255
458000000: Event_62: system.cpu progress event, total committed:107858, progress insts committed: 245, IPC: 0000.245
459000000: Event_62: system.cpu progress event, total committed:108122, progress insts committed: 264, IPC: 0000.264
460000000: Event_62: system.cpu progress event, total committed:108363, progress insts committed: 241, IPC: 0000.241
461000000: Event_62: system.cpu progress event, total committed:108631, progress insts committed: 268, IPC: 0000.268
462000000: Event_62: system.cpu progress event, total committed:108854, progress insts committed: 223, IPC: 0000.223
463000000: Event_62: system.cpu progress event, total committed:109121, progress insts committed: 267, IPC: 0000.267
464000000: Event_62: system.cpu progress event, total committed:109389, progress insts committed: 268, IPC: 0000.268
465000000: Event_62: system.cpu progress event, total committed:109636, progress insts committed: 247, IPC: 0000.247
466000000: Event_62: system.cpu progress event, total committed:109874, progress insts committed: 238, IPC: 0000.238
467000000: Event_62: system.cpu progress event, total committed:110112, progress insts committed: 238, IPC: 0000.238
468000000: Event_62: system.cpu progress event, total committed:110352, progress insts committed: 240, IPC: 00000.24
469000000: Event_62: system.cpu progress event, total committed:110596, progress insts committed: 244, IPC: 0000.244
470000000: Event_62: system.cpu progress event, total committed:110841, progress insts committed: 245, IPC: 0000.245
471000000: Event_62: system.cpu progress event, total committed:111087, progress insts committed: 246, IPC: 0000.246
472000000: Event_62: system.cpu progress event, total committed:111333, progress insts committed: 246, IPC: 0000.246
473000000: Event_62: system.cpu progress event, total committed:111572, progress insts committed: 239, IPC: 0000.239
474000000: Event_62: system.cpu progress event, total committed:111816, progress insts committed: 244, IPC: 0000.244
475000000: Event_62: system.cpu progress event, total committed:112061, progress insts committed: 245, IPC: 0000.245
476000000: Event_62: system.cpu progress event, total committed:112302, progress insts committed: 241, IPC: 0000.241
477000000: Event_62: system.cpu progress event, total committed:112548, progress insts committed: 246, IPC: 0000.246
478000000: Event_62: system.cpu progress event, total committed:112817, progress insts committed: 269, IPC: 0000.269
479000000: Event_62: system.cpu progress event, total committed:113047, progress insts committed: 230, IPC: 00000.23
480000000: Event_62: system.cpu progress event, total committed:113259, progress insts committed: 212, IPC: 0000.212
481000000: Event_62: system.cpu progress event, total committed:113399, progress insts committed: 140, IPC: 00000.14
482000000: Event_62: system.cpu progress event, total committed:113502, progress insts committed: 103, IPC: 0000.103
src/sim/mem_state.cc:443: info: Increasing stack size by one page.
483000000: Event_62: system.cpu progress event, total committed:113573, progress insts committed: 71, IPC: 0000.071
484000000: Event_62: system.cpu progress event, total committed:113804, progress insts committed: 231, IPC: 0000.231
485000000: Event_62: system.cpu progress event, total committed:113992, progress insts committed: 188, IPC: 0000.188
486000000: Event_62: system.cpu progress event, total committed:114279, progress insts committed: 287, IPC: 0000.287
487000000: Event_62: system.cpu progress event, total committed:114582, progress insts committed: 303, IPC: 0000.303
488000000: Event_62: system.cpu progress event, total committed:114873, progress insts committed: 291, IPC: 0000.291
489000000: Event_62: system.cpu progress event, total committed:114995, progress insts committed: 122, IPC: 0000.122
490000000: Event_62: system.cpu progress event, total committed:115111, progress insts committed: 116, IPC: 0000.116
491000000: Event_62: system.cpu progress event, total committed:115198, progress insts committed: 87, IPC: 0000.087
492000000: Event_62: system.cpu progress event, total committed:115320, progress insts committed: 122, IPC: 0000.122
493000000: Event_62: system.cpu progress event, total committed:115442, progress insts committed: 122, IPC: 0000.122
494000000: Event_62: system.cpu progress event, total committed:115558, progress insts committed: 116, IPC: 0000.116
495000000: Event_62: system.cpu progress event, total committed:115674, progress insts committed: 116, IPC: 0000.116
496000000: Event_62: system.cpu progress event, total committed:115792, progress insts committed: 118, IPC: 0000.118
497000000: Event_62: system.cpu progress event, total committed:115914, progress insts committed: 122, IPC: 0000.122
498000000: Event_62: system.cpu progress event, total committed:116039, progress insts committed: 125, IPC: 0000.125
499000000: Event_62: system.cpu progress event, total committed:116126, progress insts committed: 87, IPC: 0000.087
500000000: Event_62: system.cpu progress event, total committed:116242, progress insts committed: 116, IPC: 0000.116
501000000: Event_62: system.cpu progress event, total committed:116360, progress insts committed: 118, IPC: 0000.118
502000000: Event_62: system.cpu progress event, total committed:116485, progress insts committed: 125, IPC: 0000.125
503000000: Event_62: system.cpu progress event, total committed:116602, progress insts committed: 117, IPC: 0000.117
504000000: Event_62: system.cpu progress event, total committed:116718, progress insts committed: 116, IPC: 0000.116
505000000: Event_62: system.cpu progress event, total committed:116834, progress insts committed: 116, IPC: 0000.116
506000000: Event_62: system.cpu progress event, total committed:116957, progress insts committed: 123, IPC: 0000.123
507000000: Event_62: system.cpu progress event, total committed:117054, progress insts committed: 97, IPC: 0000.097
508000000: Event_62: system.cpu progress event, total committed:117170, progress insts committed: 116, IPC: 0000.116
509000000: Event_62: system.cpu progress event, total committed:117286, progress insts committed: 116, IPC: 0000.116
510000000: Event_62: system.cpu progress event, total committed:117406, progress insts committed: 120, IPC: 00000.12
511000000: Event_62: system.cpu progress event, total committed:117527, progress insts committed: 121, IPC: 0000.121
512000000: Event_62: system.cpu progress event, total committed:117646, progress insts committed: 119, IPC: 0000.119
513000000: Event_62: system.cpu progress event, total committed:117762, progress insts committed: 116, IPC: 0000.116
514000000: Event_62: system.cpu progress event, total committed:117878, progress insts committed: 116, IPC: 0000.116
515000000: Event_62: system.cpu progress event, total committed:117974, progress insts committed: 96, IPC: 0000.096
516000000: Event_62: system.cpu progress event, total committed:118098, progress insts committed: 124, IPC: 0000.124
517000000: Event_62: system.cpu progress event, total committed:118214, progress insts committed: 116, IPC: 0000.116
518000000: Event_62: system.cpu progress event, total committed:118330, progress insts committed: 116, IPC: 0000.116
519000000: Event_62: system.cpu progress event, total committed:118446, progress insts committed: 116, IPC: 0000.116
520000000: Event_62: system.cpu progress event, total committed:118571, progress insts committed: 125, IPC: 0000.125
521000000: Event_62: system.cpu progress event, total committed:118699, progress insts committed: 128, IPC: 0000.128
522000000: Event_62: system.cpu progress event, total committed:118896, progress insts committed: 197, IPC: 0000.197
523000000: Event_62: system.cpu progress event, total committed:119152, progress insts committed: 256, IPC: 0000.256
524000000: Event_62: system.cpu progress event, total committed:119273, progress insts committed: 121, IPC: 0000.121
525000000: Event_62: system.cpu progress event, total committed:119405, progress insts committed: 132, IPC: 0000.132
526000000: Event_62: system.cpu progress event, total committed:119534, progress insts committed: 129, IPC: 0000.129
527000000: Event_62: system.cpu progress event, total committed:119715, progress insts committed: 181, IPC: 0000.181
528000000: Event_62: system.cpu progress event, total committed:119955, progress insts committed: 240, IPC: 00000.24
529000000: Event_62: system.cpu progress event, total committed:120222, progress insts committed: 267, IPC: 0000.267
530000000: Event_62: system.cpu progress event, total committed:120498, progress insts committed: 276, IPC: 0000.276
531000000: Event_62: system.cpu progress event, total committed:120759, progress insts committed: 261, IPC: 0000.261
532000000: Event_62: system.cpu progress event, total committed:121033, progress insts committed: 274, IPC: 0000.274
533000000: Event_62: system.cpu progress event, total committed:121302, progress insts committed: 269, IPC: 0000.269
534000000: Event_62: system.cpu progress event, total committed:121560, progress insts committed: 258, IPC: 0000.258
535000000: Event_62: system.cpu progress event, total committed:121844, progress insts committed: 284, IPC: 0000.284
536000000: Event_62: system.cpu progress event, total committed:122123, progress insts committed: 279, IPC: 0000.279
537000000: Event_62: system.cpu progress event, total committed:122390, progress insts committed: 267, IPC: 0000.267
538000000: Event_62: system.cpu progress event, total committed:122667, progress insts committed: 277, IPC: 0000.277
539000000: Event_62: system.cpu progress event, total committed:122949, progress insts committed: 282, IPC: 0000.282
540000000: Event_62: system.cpu progress event, total committed:123235, progress insts committed: 286, IPC: 0000.286
541000000: Event_62: system.cpu progress event, total committed:123505, progress insts committed: 270, IPC: 00000.27
542000000: Event_62: system.cpu progress event, total committed:123804, progress insts committed: 299, IPC: 0000.299
543000000: Event_62: system.cpu progress event, total committed:124105, progress insts committed: 301, IPC: 0000.301
544000000: Event_62: system.cpu progress event, total committed:124402, progress insts committed: 297, IPC: 0000.297
545000000: Event_62: system.cpu progress event, total committed:124700, progress insts committed: 298, IPC: 0000.298
546000000: Event_62: system.cpu progress event, total committed:124974, progress insts committed: 274, IPC: 0000.274
547000000: Event_62: system.cpu progress event, total committed:125265, progress insts committed: 291, IPC: 0000.291
548000000: Event_62: system.cpu progress event, total committed:125571, progress insts committed: 306, IPC: 0000.306
549000000: Event_62: system.cpu progress event, total committed:125860, progress insts committed: 289, IPC: 0000.289
550000000: Event_62: system.cpu progress event, total committed:126159, progress insts committed: 299, IPC: 0000.299
551000000: Event_62: system.cpu progress event, total committed:126465, progress insts committed: 306, IPC: 0000.306
552000000: Event_62: system.cpu progress event, total committed:126761, progress insts committed: 296, IPC: 0000.296
553000000: Event_62: system.cpu progress event, total committed:127067, progress insts committed: 306, IPC: 0000.306
554000000: Event_62: system.cpu progress event, total committed:127363, progress insts committed: 296, IPC: 0000.296
555000000: Event_62: system.cpu progress event, total committed:127649, progress insts committed: 286, IPC: 0000.286
556000000: Event_62: system.cpu progress event, total committed:127941, progress insts committed: 292, IPC: 0000.292
557000000: Event_62: system.cpu progress event, total committed:128243, progress insts committed: 302, IPC: 0000.302
558000000: Event_62: system.cpu progress event, total committed:128549, progress insts committed: 306, IPC: 0000.306
559000000: Event_62: system.cpu progress event, total committed:128839, progress insts committed: 290, IPC: 00000.29
560000000: Event_62: system.cpu progress event, total committed:129145, progress insts committed: 306, IPC: 0000.306
561000000: Event_62: system.cpu progress event, total committed:129438, progress insts committed: 293, IPC: 0000.293
562000000: Event_62: system.cpu progress event, total committed:129745, progress insts committed: 307, IPC: 0000.307
563000000: Event_62: system.cpu progress event, total committed:130049, progress insts committed: 304, IPC: 0000.304
564000000: Event_62: system.cpu progress event, total committed:130355, progress insts committed: 306, IPC: 0000.306
565000000: Event_62: system.cpu progress event, total committed:130651, progress insts committed: 296, IPC: 0000.296
566000000: Event_62: system.cpu progress event, total committed:130957, progress insts committed: 306, IPC: 0000.306
567000000: Event_62: system.cpu progress event, total committed:131257, progress insts committed: 300, IPC: 000000.3
568000000: Event_62: system.cpu progress event, total committed:131568, progress insts committed: 311, IPC: 0000.311
569000000: Event_62: system.cpu progress event, total committed:131871, progress insts committed: 303, IPC: 0000.303
570000000: Event_62: system.cpu progress event, total committed:132169, progress insts committed: 298, IPC: 0000.298
571000000: Event_62: system.cpu progress event, total committed:132457, progress insts committed: 288, IPC: 0000.288
572000000: Event_62: system.cpu progress event, total committed:132750, progress insts committed: 293, IPC: 0000.293
573000000: Event_62: system.cpu progress event, total committed:133053, progress insts committed: 303, IPC: 0000.303
574000000: Event_62: system.cpu progress event, total committed:133344, progress insts committed: 291, IPC: 0000.291
575000000: Event_62: system.cpu progress event, total committed:133641, progress insts committed: 297, IPC: 0000.297
576000000: Event_62: system.cpu progress event, total committed:133941, progress insts committed: 300, IPC: 000000.3
577000000: Event_62: system.cpu progress event, total committed:134243, progress insts committed: 302, IPC: 0000.302
578000000: Event_62: system.cpu progress event, total committed:134549, progress insts committed: 306, IPC: 0000.306
579000000: Event_62: system.cpu progress event, total committed:134848, progress insts committed: 299, IPC: 0000.299
580000000: Event_62: system.cpu progress event, total committed:135154, progress insts committed: 306, IPC: 0000.306
581000000: Event_62: system.cpu progress event, total committed:135455, progress insts committed: 301, IPC: 0000.301
582000000: Event_62: system.cpu progress event, total committed:135748, progress insts committed: 293, IPC: 0000.293
583000000: Event_62: system.cpu progress event, total committed:136055, progress insts committed: 307, IPC: 0000.307
584000000: Event_62: system.cpu progress event, total committed:136359, progress insts committed: 304, IPC: 0000.304
585000000: Event_62: system.cpu progress event, total committed:136665, progress insts committed: 306, IPC: 0000.306
586000000: Event_62: system.cpu progress event, total committed:136970, progress insts committed: 305, IPC: 0000.305
587000000: Event_62: system.cpu progress event, total committed:137275, progress insts committed: 305, IPC: 0000.305
588000000: Event_62: system.cpu progress event, total committed:137580, progress insts committed: 305, IPC: 0000.305
589000000: Event_62: system.cpu progress event, total committed:137875, progress insts committed: 295, IPC: 0000.295
590000000: Event_62: system.cpu progress event, total committed:138181, progress insts committed: 306, IPC: 0000.306
591000000: Event_62: system.cpu progress event, total committed:138492, progress insts committed: 311, IPC: 0000.311
592000000: Event_62: system.cpu progress event, total committed:138788, progress insts committed: 296, IPC: 0000.296
593000000: Event_62: system.cpu progress event, total committed:139083, progress insts committed: 295, IPC: 0000.295
594000000: Event_62: system.cpu progress event, total committed:139380, progress insts committed: 297, IPC: 0000.297
595000000: Event_62: system.cpu progress event, total committed:139678, progress insts committed: 298, IPC: 0000.298
596000000: Event_62: system.cpu progress event, total committed:139987, progress insts committed: 309, IPC: 0000.309
597000000: Event_62: system.cpu progress event, total committed:140291, progress insts committed: 304, IPC: 0000.304
598000000: Event_62: system.cpu progress event, total committed:140593, progress insts committed: 302, IPC: 0000.302
599000000: Event_62: system.cpu progress event, total committed:140898, progress insts committed: 305, IPC: 0000.305
600000000: Event_62: system.cpu progress event, total committed:141200, progress insts committed: 302, IPC: 0000.302
601000000: Event_62: system.cpu progress event, total committed:141505, progress insts committed: 305, IPC: 0000.305
602000000: Event_62: system.cpu progress event, total committed:141809, progress insts committed: 304, IPC: 0000.304
603000000: Event_62: system.cpu progress event, total committed:142116, progress insts committed: 307, IPC: 0000.307
604000000: Event_62: system.cpu progress event, total committed:142420, progress insts committed: 304, IPC: 0000.304
605000000: Event_62: system.cpu progress event, total committed:142723, progress insts committed: 303, IPC: 0000.303
606000000: Event_62: system.cpu progress event, total committed:143029, progress insts committed: 306, IPC: 0000.306
607000000: Event_62: system.cpu progress event, total committed:143329, progress insts committed: 300, IPC: 000000.3
608000000: Event_62: system.cpu progress event, total committed:143635, progress insts committed: 306, IPC: 0000.306
609000000: Event_62: system.cpu progress event, total committed:143936, progress insts committed: 301, IPC: 0000.301
610000000: Event_62: system.cpu progress event, total committed:144233, progress insts committed: 297, IPC: 0000.297
611000000: Event_62: system.cpu progress event, total committed:144540, progress insts committed: 307, IPC: 0000.307
612000000: Event_62: system.cpu progress event, total committed:144838, progress insts committed: 298, IPC: 0000.298
613000000: Event_62: system.cpu progress event, total committed:145144, progress insts committed: 306, IPC: 0000.306
614000000: Event_62: system.cpu progress event, total committed:145449, progress insts committed: 305, IPC: 0000.305
615000000: Event_62: system.cpu progress event, total committed:145743, progress insts committed: 294, IPC: 0000.294
616000000: Event_62: system.cpu progress event, total committed:146053, progress insts committed: 310, IPC: 00000.31
617000000: Event_62: system.cpu progress event, total committed:146354, progress insts committed: 301, IPC: 0000.301
618000000: Event_62: system.cpu progress event, total committed:146659, progress insts committed: 305, IPC: 0000.305
619000000: Event_62: system.cpu progress event, total committed:146961, progress insts committed: 302, IPC: 0000.302
620000000: Event_62: system.cpu progress event, total committed:147257, progress insts committed: 296, IPC: 0000.296
621000000: Event_62: system.cpu progress event, total committed:147562, progress insts committed: 305, IPC: 0000.305
622000000: Event_62: system.cpu progress event, total committed:147857, progress insts committed: 295, IPC: 0000.295
623000000: Event_62: system.cpu progress event, total committed:148149, progress insts committed: 292, IPC: 0000.292
624000000: Event_62: system.cpu progress event, total committed:148455, progress insts committed: 306, IPC: 0000.306
625000000: Event_62: system.cpu progress event, total committed:148747, progress insts committed: 292, IPC: 0000.292
626000000: Event_62: system.cpu progress event, total committed:149053, progress insts committed: 306, IPC: 0000.306
627000000: Event_62: system.cpu progress event, total committed:149348, progress insts committed: 295, IPC: 0000.295
628000000: Event_62: system.cpu progress event, total committed:149651, progress insts committed: 303, IPC: 0000.303
629000000: Event_62: system.cpu progress event, total committed:149955, progress insts committed: 304, IPC: 0000.304
630000000: Event_62: system.cpu progress event, total committed:150253, progress insts committed: 298, IPC: 0000.298
631000000: Event_62: system.cpu progress event, total committed:150561, progress insts committed: 308, IPC: 0000.308
632000000: Event_62: system.cpu progress event, total committed:150867, progress insts committed: 306, IPC: 0000.306
633000000: Event_62: system.cpu progress event, total committed:151173, progress insts committed: 306, IPC: 0000.306
634000000: Event_62: system.cpu progress event, total committed:151483, progress insts committed: 310, IPC: 00000.31
635000000: Event_62: system.cpu progress event, total committed:151787, progress insts committed: 304, IPC: 0000.304
636000000: Event_62: system.cpu progress event, total committed:152087, progress insts committed: 300, IPC: 000000.3
637000000: Event_62: system.cpu progress event, total committed:152389, progress insts committed: 302, IPC: 0000.302
638000000: Event_62: system.cpu progress event, total committed:152695, progress insts committed: 306, IPC: 0000.306
639000000: Event_62: system.cpu progress event, total committed:152997, progress insts committed: 302, IPC: 0000.302
640000000: Event_62: system.cpu progress event, total committed:153301, progress insts committed: 304, IPC: 0000.304
641000000: Event_62: system.cpu progress event, total committed:153594, progress insts committed: 293, IPC: 0000.293
642000000: Event_62: system.cpu progress event, total committed:153899, progress insts committed: 305, IPC: 0000.305
643000000: Event_62: system.cpu progress event, total committed:154193, progress insts committed: 294, IPC: 0000.294
644000000: Event_62: system.cpu progress event, total committed:154498, progress insts committed: 305, IPC: 0000.305
645000000: Event_62: system.cpu progress event, total committed:154789, progress insts committed: 291, IPC: 0000.291
646000000: Event_62: system.cpu progress event, total committed:155094, progress insts committed: 305, IPC: 0000.305
647000000: Event_62: system.cpu progress event, total committed:155391, progress insts committed: 297, IPC: 0000.297
648000000: Event_62: system.cpu progress event, total committed:155689, progress insts committed: 298, IPC: 0000.298
649000000: Event_62: system.cpu progress event, total committed:155995, progress insts committed: 306, IPC: 0000.306
650000000: Event_62: system.cpu progress event, total committed:156295, progress insts committed: 300, IPC: 000000.3
651000000: Event_62: system.cpu progress event, total committed:156591, progress insts committed: 296, IPC: 0000.296
652000000: Event_62: system.cpu progress event, total committed:156897, progress insts committed: 306, IPC: 0000.306
653000000: Event_62: system.cpu progress event, total committed:157201, progress insts committed: 304, IPC: 0000.304
654000000: Event_62: system.cpu progress event, total committed:157513, progress insts committed: 312, IPC: 0000.312
655000000: Event_62: system.cpu progress event, total committed:157795, progress insts committed: 282, IPC: 0000.282
656000000: Event_62: system.cpu progress event, total committed:158084, progress insts committed: 289, IPC: 0000.289
657000000: Event_62: system.cpu progress event, total committed:158384, progress insts committed: 300, IPC: 000000.3
658000000: Event_62: system.cpu progress event, total committed:158665, progress insts committed: 281, IPC: 0000.281
659000000: Event_62: system.cpu progress event, total committed:158975, progress insts committed: 310, IPC: 00000.31
660000000: Event_62: system.cpu progress event, total committed:159274, progress insts committed: 299, IPC: 0000.299
661000000: Event_62: system.cpu progress event, total committed:159581, progress insts committed: 307, IPC: 0000.307
662000000: Event_62: system.cpu progress event, total committed:159885, progress insts committed: 304, IPC: 0000.304
663000000: Event_62: system.cpu progress event, total committed:160191, progress insts committed: 306, IPC: 0000.306
664000000: Event_62: system.cpu progress event, total committed:160503, progress insts committed: 312, IPC: 0000.312
665000000: Event_62: system.cpu progress event, total committed:160797, progress insts committed: 294, IPC: 0000.294
666000000: Event_62: system.cpu progress event, total committed:161091, progress insts committed: 294, IPC: 0000.294
667000000: Event_62: system.cpu progress event, total committed:161379, progress insts committed: 288, IPC: 0000.288
668000000: Event_62: system.cpu progress event, total committed:161673, progress insts committed: 294, IPC: 0000.294
669000000: Event_62: system.cpu progress event, total committed:161979, progress insts committed: 306, IPC: 0000.306
670000000: Event_62: system.cpu progress event, total committed:162279, progress insts committed: 300, IPC: 000000.3
671000000: Event_62: system.cpu progress event, total committed:162581, progress insts committed: 302, IPC: 0000.302
672000000: Event_62: system.cpu progress event, total committed:162891, progress insts committed: 310, IPC: 00000.31
673000000: Event_62: system.cpu progress event, total committed:163195, progress insts committed: 304, IPC: 0000.304
674000000: Event_62: system.cpu progress event, total committed:163498, progress insts committed: 303, IPC: 0000.303
675000000: Event_62: system.cpu progress event, total committed:163797, progress insts committed: 299, IPC: 0000.299
[...]
32848000000: Event_62: system.cpu progress event, total committed:9746692, progress insts committed: 297, IPC: 0000.297
32849000000: Event_62: system.cpu progress event, total committed:9746993, progress insts committed: 301, IPC: 0000.301
32850000000: Event_62: system.cpu progress event, total committed:9747295, progress insts committed: 302, IPC: 0000.302
32851000000: Event_62: system.cpu progress event, total committed:9747597, progress insts committed: 302, IPC: 0000.302
32852000000: Event_62: system.cpu progress event, total committed:9747888, progress insts committed: 291, IPC: 0000.291
32853000000: Event_62: system.cpu progress event, total committed:9748187, progress insts committed: 299, IPC: 0000.299
32854000000: Event_62: system.cpu progress event, total committed:9748489, progress insts committed: 302, IPC: 0000.302
32855000000: Event_62: system.cpu progress event, total committed:9748792, progress insts committed: 303, IPC: 0000.303
32856000000: Event_62: system.cpu progress event, total committed:9749095, progress insts committed: 303, IPC: 0000.303
32857000000: Event_62: system.cpu progress event, total committed:9749397, progress insts committed: 302, IPC: 0000.302
32858000000: Event_62: system.cpu progress event, total committed:9749698, progress insts committed: 301, IPC: 0000.301
32859000000: Event_62: system.cpu progress event, total committed:9749982, progress insts committed: 284, IPC: 0000.284
32860000000: Event_62: system.cpu progress event, total committed:9750276, progress insts committed: 294, IPC: 0000.294
32861000000: Event_62: system.cpu progress event, total committed:9750577, progress insts committed: 301, IPC: 0000.301
32862000000: Event_62: system.cpu progress event, total committed:9750864, progress insts committed: 287, IPC: 0000.287
32863000000: Event_62: system.cpu progress event, total committed:9751157, progress insts committed: 293, IPC: 0000.293
32864000000: Event_62: system.cpu progress event, total committed:9751450, progress insts committed: 293, IPC: 0000.293
32865000000: Event_62: system.cpu progress event, total committed:9751755, progress insts committed: 305, IPC: 0000.305
32866000000: Event_62: system.cpu progress event, total committed:9752055, progress insts committed: 300, IPC: 000000.3
32867000000: Event_62: system.cpu progress event, total committed:9752354, progress insts committed: 299, IPC: 0000.299
32868000000: Event_62: system.cpu progress event, total committed:9752637, progress insts committed: 283, IPC: 0000.283
32869000000: Event_62: system.cpu progress event, total committed:9752933, progress insts committed: 296, IPC: 0000.296
32870000000: Event_62: system.cpu progress event, total committed:9753217, progress insts committed: 284, IPC: 0000.284
32871000000: Event_62: system.cpu progress event, total committed:9753518, progress insts committed: 301, IPC: 0000.301
32872000000: Event_62: system.cpu progress event, total committed:9753820, progress insts committed: 302, IPC: 0000.302
32873000000: Event_62: system.cpu progress event, total committed:9754122, progress insts committed: 302, IPC: 0000.302
32874000000: Event_62: system.cpu progress event, total committed:9754414, progress insts committed: 292, IPC: 0000.292
32875000000: Event_62: system.cpu progress event, total committed:9754716, progress insts committed: 302, IPC: 0000.302
32876000000: Event_62: system.cpu progress event, total committed:9755018, progress insts committed: 302, IPC: 0000.302
32877000000: Event_62: system.cpu progress event, total committed:9755321, progress insts committed: 303, IPC: 0000.303
32878000000: Event_62: system.cpu progress event, total committed:9755622, progress insts committed: 301, IPC: 0000.301
32879000000: Event_62: system.cpu progress event, total committed:9755922, progress insts committed: 300, IPC: 000000.3
32880000000: Event_62: system.cpu progress event, total committed:9756224, progress insts committed: 302, IPC: 0000.302
32881000000: Event_62: system.cpu progress event, total committed:9756507, progress insts committed: 283, IPC: 0000.283
32882000000: Event_62: system.cpu progress event, total committed:9756795, progress insts committed: 288, IPC: 0000.288
32883000000: Event_62: system.cpu progress event, total committed:9757080, progress insts committed: 285, IPC: 0000.285
32884000000: Event_62: system.cpu progress event, total committed:9757381, progress insts committed: 301, IPC: 0000.301
32885000000: Event_62: system.cpu progress event, total committed:9757675, progress insts committed: 294, IPC: 0000.294
32886000000: Event_62: system.cpu progress event, total committed:9757967, progress insts committed: 292, IPC: 0000.292
32887000000: Event_62: system.cpu progress event, total committed:9758265, progress insts committed: 298, IPC: 0000.298
32888000000: Event_62: system.cpu progress event, total committed:9758575, progress insts committed: 310, IPC: 00000.31
32889000000: Event_62: system.cpu progress event, total committed:9758876, progress insts committed: 301, IPC: 0000.301
32890000000: Event_62: system.cpu progress event, total committed:9759169, progress insts committed: 293, IPC: 0000.293
32891000000: Event_62: system.cpu progress event, total committed:9759477, progress insts committed: 308, IPC: 0000.308
32892000000: Event_62: system.cpu progress event, total committed:9759762, progress insts committed: 285, IPC: 0000.285
32893000000: Event_62: system.cpu progress event, total committed:9760065, progress insts committed: 303, IPC: 0000.303
32894000000: Event_62: system.cpu progress event, total committed:9760367, progress insts committed: 302, IPC: 0000.302
32895000000: Event_62: system.cpu progress event, total committed:9760668, progress insts committed: 301, IPC: 0000.301
32896000000: Event_62: system.cpu progress event, total committed:9760963, progress insts committed: 295, IPC: 0000.295
32897000000: Event_62: system.cpu progress event, total committed:9761266, progress insts committed: 303, IPC: 0000.303
32898000000: Event_62: system.cpu progress event, total committed:9761568, progress insts committed: 302, IPC: 0000.302
32899000000: Event_62: system.cpu progress event, total committed:9761871, progress insts committed: 303, IPC: 0000.303
32900000000: Event_62: system.cpu progress event, total committed:9762170, progress insts committed: 299, IPC: 0000.299
32901000000: Event_62: system.cpu progress event, total committed:9762472, progress insts committed: 302, IPC: 0000.302
32902000000: Event_62: system.cpu progress event, total committed:9762774, progress insts committed: 302, IPC: 0000.302
32903000000: Event_62: system.cpu progress event, total committed:9763065, progress insts committed: 291, IPC: 0000.291
32904000000: Event_62: system.cpu progress event, total committed:9763357, progress insts committed: 292, IPC: 0000.292
32905000000: Event_62: system.cpu progress event, total committed:9763665, progress insts committed: 308, IPC: 0000.308
32906000000: Event_62: system.cpu progress event, total committed:9763964, progress insts committed: 299, IPC: 0000.299
32907000000: Event_62: system.cpu progress event, total committed:9764263, progress insts committed: 299, IPC: 0000.299
32908000000: Event_62: system.cpu progress event, total committed:9764565, progress insts committed: 302, IPC: 0000.302
32909000000: Event_62: system.cpu progress event, total committed:9764871, progress insts committed: 306, IPC: 0000.306
32910000000: Event_62: system.cpu progress event, total committed:9765145, progress insts committed: 274, IPC: 0000.274
32911000000: Event_62: system.cpu progress event, total committed:9765446, progress insts committed: 301, IPC: 0000.301
32912000000: Event_62: system.cpu progress event, total committed:9765735, progress insts committed: 289, IPC: 0000.289
32913000000: Event_62: system.cpu progress event, total committed:9766043, progress insts committed: 308, IPC: 0000.308
32914000000: Event_62: system.cpu progress event, total committed:9766322, progress insts committed: 279, IPC: 0000.279
32915000000: Event_62: system.cpu progress event, total committed:9766623, progress insts committed: 301, IPC: 0000.301
32916000000: Event_62: system.cpu progress event, total committed:9766925, progress insts committed: 302, IPC: 0000.302
32917000000: Event_62: system.cpu progress event, total committed:9767226, progress insts committed: 301, IPC: 0000.301
32918000000: Event_62: system.cpu progress event, total committed:9767517, progress insts committed: 291, IPC: 0000.291
32919000000: Event_62: system.cpu progress event, total committed:9767820, progress insts committed: 303, IPC: 0000.303
32920000000: Event_62: system.cpu progress event, total committed:9768122, progress insts committed: 302, IPC: 0000.302
32921000000: Event_62: system.cpu progress event, total committed:9768421, progress insts committed: 299, IPC: 0000.299
32922000000: Event_62: system.cpu progress event, total committed:9768724, progress insts committed: 303, IPC: 0000.303
32923000000: Event_62: system.cpu progress event, total committed:9769026, progress insts committed: 302, IPC: 0000.302
32924000000: Event_62: system.cpu progress event, total committed:9769328, progress insts committed: 302, IPC: 0000.302
32925000000: Event_62: system.cpu progress event, total committed:9769628, progress insts committed: 300, IPC: 000000.3
32926000000: Event_62: system.cpu progress event, total committed:9769911, progress insts committed: 283, IPC: 0000.283
32927000000: Event_62: system.cpu progress event, total committed:9770209, progress insts committed: 298, IPC: 0000.298
32928000000: Event_62: system.cpu progress event, total committed:9770512, progress insts committed: 303, IPC: 0000.303
32929000000: Event_62: system.cpu progress event, total committed:9770805, progress insts committed: 293, IPC: 0000.293
32930000000: Event_62: system.cpu progress event, total committed:9771111, progress insts committed: 306, IPC: 0000.306
32931000000: Event_62: system.cpu progress event, total committed:9771415, progress insts committed: 304, IPC: 0000.304
32932000000: Event_62: system.cpu progress event, total committed:9771712, progress insts committed: 297, IPC: 0000.297
32933000000: Event_62: system.cpu progress event, total committed:9772016, progress insts committed: 304, IPC: 0000.304
32934000000: Event_62: system.cpu progress event, total committed:9772316, progress insts committed: 300, IPC: 000000.3
32935000000: Event_62: system.cpu progress event, total committed:9772618, progress insts committed: 302, IPC: 0000.302
32936000000: Event_62: system.cpu progress event, total committed:9772906, progress insts committed: 288, IPC: 0000.288
32937000000: Event_62: system.cpu progress event, total committed:9773207, progress insts committed: 301, IPC: 0000.301
32938000000: Event_62: system.cpu progress event, total committed:9773509, progress insts committed: 302, IPC: 0000.302
32939000000: Event_62: system.cpu progress event, total committed:9773812, progress insts committed: 303, IPC: 0000.303
32940000000: Event_62: system.cpu progress event, total committed:9774102, progress insts committed: 290, IPC: 00000.29
32941000000: Event_62: system.cpu progress event, total committed:9774401, progress insts committed: 299, IPC: 0000.299
32942000000: Event_62: system.cpu progress event, total committed:9774704, progress insts committed: 303, IPC: 0000.303
32943000000: Event_62: system.cpu progress event, total committed:9775006, progress insts committed: 302, IPC: 0000.302
32944000000: Event_62: system.cpu progress event, total committed:9775308, progress insts committed: 302, IPC: 0000.302
32945000000: Event_62: system.cpu progress event, total committed:9775612, progress insts committed: 304, IPC: 0000.304
32946000000: Event_62: system.cpu progress event, total committed:9775914, progress insts committed: 302, IPC: 0000.302
32947000000: Event_62: system.cpu progress event, total committed:9776203, progress insts committed: 289, IPC: 0000.289
32948000000: Event_62: system.cpu progress event, total committed:9776497, progress insts committed: 294, IPC: 0000.294
32949000000: Event_62: system.cpu progress event, total committed:9776799, progress insts committed: 302, IPC: 0000.302
32950000000: Event_62: system.cpu progress event, total committed:9777097, progress insts committed: 298, IPC: 0000.298
32951000000: Event_62: system.cpu progress event, total committed:9777394, progress insts committed: 297, IPC: 0000.297
32952000000: Event_62: system.cpu progress event, total committed:9777678, progress insts committed: 284, IPC: 0000.284
32953000000: Event_62: system.cpu progress event, total committed:9777972, progress insts committed: 294, IPC: 0000.294
32954000000: Event_62: system.cpu progress event, total committed:9778268, progress insts committed: 296, IPC: 0000.296
32955000000: Event_62: system.cpu progress event, total committed:9778567, progress insts committed: 299, IPC: 0000.299
32956000000: Event_62: system.cpu progress event, total committed:9778841, progress insts committed: 274, IPC: 0000.274
32957000000: Event_62: system.cpu progress event, total committed:9779149, progress insts committed: 308, IPC: 0000.308
32958000000: Event_62: system.cpu progress event, total committed:9779431, progress insts committed: 282, IPC: 0000.282
32959000000: Event_62: system.cpu progress event, total committed:9779733, progress insts committed: 302, IPC: 0000.302
32960000000: Event_62: system.cpu progress event, total committed:9780035, progress insts committed: 302, IPC: 0000.302
32961000000: Event_62: system.cpu progress event, total committed:9780337, progress insts committed: 302, IPC: 0000.302
32962000000: Event_62: system.cpu progress event, total committed:9780632, progress insts committed: 295, IPC: 0000.295
32963000000: Event_62: system.cpu progress event, total committed:9780934, progress insts committed: 302, IPC: 0000.302
32964000000: Event_62: system.cpu progress event, total committed:9781236, progress insts committed: 302, IPC: 0000.302
32965000000: Event_62: system.cpu progress event, total committed:9781539, progress insts committed: 303, IPC: 0000.303
32966000000: Event_62: system.cpu progress event, total committed:9781841, progress insts committed: 302, IPC: 0000.302
32967000000: Event_62: system.cpu progress event, total committed:9782140, progress insts committed: 299, IPC: 0000.299
32968000000: Event_62: system.cpu progress event, total committed:9782443, progress insts committed: 303, IPC: 0000.303
32969000000: Event_62: system.cpu progress event, total committed:9782738, progress insts committed: 295, IPC: 0000.295
32970000000: Event_62: system.cpu progress event, total committed:9783027, progress insts committed: 289, IPC: 0000.289
32971000000: Event_62: system.cpu progress event, total committed:9783328, progress insts committed: 301, IPC: 0000.301
32972000000: Event_62: system.cpu progress event, total committed:9783622, progress insts committed: 294, IPC: 0000.294
32973000000: Event_62: system.cpu progress event, total committed:9783927, progress insts committed: 305, IPC: 0000.305
32974000000: Event_62: system.cpu progress event, total committed:9784225, progress insts committed: 298, IPC: 0000.298
32975000000: Event_62: system.cpu progress event, total committed:9784526, progress insts committed: 301, IPC: 0000.301
32976000000: Event_62: system.cpu progress event, total committed:9784831, progress insts committed: 305, IPC: 0000.305
32977000000: Event_62: system.cpu progress event, total committed:9785140, progress insts committed: 309, IPC: 0000.309
32978000000: Event_62: system.cpu progress event, total committed:9785433, progress insts committed: 293, IPC: 0000.293
32979000000: Event_62: system.cpu progress event, total committed:9785735, progress insts committed: 302, IPC: 0000.302
32980000000: Event_62: system.cpu progress event, total committed:9786019, progress insts committed: 284, IPC: 0000.284
32981000000: Event_62: system.cpu progress event, total committed:9786321, progress insts committed: 302, IPC: 0000.302
32982000000: Event_62: system.cpu progress event, total committed:9786622, progress insts committed: 301, IPC: 0000.301
32983000000: Event_62: system.cpu progress event, total committed:9786925, progress insts committed: 303, IPC: 0000.303
32984000000: Event_62: system.cpu progress event, total committed:9787219, progress insts committed: 294, IPC: 0000.294
32985000000: Event_62: system.cpu progress event, total committed:9787521, progress insts committed: 302, IPC: 0000.302
32986000000: Event_62: system.cpu progress event, total committed:9787825, progress insts committed: 304, IPC: 0000.304
32987000000: Event_62: system.cpu progress event, total committed:9788127, progress insts committed: 302, IPC: 0000.302
32988000000: Event_62: system.cpu progress event, total committed:9788407, progress insts committed: 280, IPC: 00000.28
32989000000: Event_62: system.cpu progress event, total committed:9788662, progress insts committed: 255, IPC: 0000.255
32990000000: Event_62: system.cpu progress event, total committed:9788964, progress insts committed: 302, IPC: 0000.302
32991000000: Event_62: system.cpu progress event, total committed:9789259, progress insts committed: 295, IPC: 0000.295
32992000000: Event_62: system.cpu progress event, total committed:9789546, progress insts committed: 287, IPC: 0000.287
32993000000: Event_62: system.cpu progress event, total committed:9789844, progress insts committed: 298, IPC: 0000.298
32994000000: Event_62: system.cpu progress event, total committed:9790132, progress insts committed: 288, IPC: 0000.288
32995000000: Event_62: system.cpu progress event, total committed:9790423, progress insts committed: 291, IPC: 0000.291
32996000000: Event_62: system.cpu progress event, total committed:9790710, progress insts committed: 287, IPC: 0000.287
32997000000: Event_62: system.cpu progress event, total committed:9790999, progress insts committed: 289, IPC: 0000.289
32998000000: Event_62: system.cpu progress event, total committed:9791284, progress insts committed: 285, IPC: 0000.285
32999000000: Event_62: system.cpu progress event, total committed:9791586, progress insts committed: 302, IPC: 0000.302
33000000000: Event_62: system.cpu progress event, total committed:9791872, progress insts committed: 286, IPC: 0000.286
33001000000: Event_62: system.cpu progress event, total committed:9792082, progress insts committed: 210, IPC: 00000.21
33002000000: Event_62: system.cpu progress event, total committed:9792175, progress insts committed: 93, IPC: 0000.093
33003000000: Event_62: system.cpu progress event, total committed:9792295, progress insts committed: 120, IPC: 00000.12
33004000000: Event_62: system.cpu progress event, total committed:9792419, progress insts committed: 124, IPC: 0000.124
33005000000: Event_62: system.cpu progress event, total committed:9792617, progress insts committed: 198, IPC: 0000.198
33006000000: Event_62: system.cpu progress event, total committed:9792727, progress insts committed: 110, IPC: 00000.11
33007000000: Event_62: system.cpu progress event, total committed:9792798, progress insts committed: 71, IPC: 0000.071
33008000000: Event_62: system.cpu progress event, total committed:9792905, progress insts committed: 107, IPC: 0000.107
33009000000: Event_62: system.cpu progress event, total committed:9793069, progress insts committed: 164, IPC: 0000.164
33010000000: Event_62: system.cpu progress event, total committed:9793132, progress insts committed: 63, IPC: 0000.063
33011000000: Event_62: system.cpu progress event, total committed:9793252, progress insts committed: 120, IPC: 00000.12
33012000000: Event_62: system.cpu progress event, total committed:9793336, progress insts committed: 84, IPC: 0000.084
33013000000: Event_62: system.cpu progress event, total committed:9793583, progress insts committed: 247, IPC: 0000.247
Exiting @ tick 33013421000 because exiting with last active thread context
