gem5 Simulator System.  https://www.gem5.org
gem5 is copyrighted software; use the --copyright option for details.

gem5 version 23.0.0.1
gem5 compiled Jan 26 2026 00:01:36
gem5 started Feb 10 2026 20:27:34
gem5 executing on notebook, pid 80613
command line: /opt/gem5/build/RISCV/gem5.opt -r -d /home/xfalc/arq/TP4_EX4/m5out/q4/A7/L1_8kB/dijkstra /home/xfalc/arq/TP4_EX4/gem5/se_A7_q4.py --l1 8kB --maxinsts 10000000 --progress 1000000 --cmd /home/xfalc/arq/TP4_EX4/bench/bin/dijkstra_small --options /home/xfalc/arq/TP4_EX4/bench/mibench/network/dijkstra/input.dat

Global frequency set at 1000000000000 ticks per second
src/mem/dram_interface.cc:690: warn: DRAM device capacity (8192 Mbytes) does not match the address range assigned (2048 Mbytes)
src/base/statistics.hh:279: warn: One of the stats is a legacy stat. Legacy stat is a stat that does not belong to any statistics::Group. Legacy stat is deprecated.
system.remote_gdb: Listening for connections on port 7000
src/sim/simulate.cc:194: info: Entering event queue @ 0.  Starting simulation...
1000000: Event_62: system.cpu progress event, total committed:66, progress insts committed: 66, IPC: 0000.066
2000000: Event_62: system.cpu progress event, total committed:186, progress insts committed: 120, IPC: 00000.12
3000000: Event_62: system.cpu progress event, total committed:300, progress insts committed: 114, IPC: 0000.114
4000000: Event_62: system.cpu progress event, total committed:358, progress insts committed: 58, IPC: 0000.058
5000000: Event_62: system.cpu progress event, total committed:397, progress insts committed: 39, IPC: 0000.039
6000000: Event_62: system.cpu progress event, total committed:486, progress insts committed: 89, IPC: 0000.089
7000000: Event_62: system.cpu progress event, total committed:578, progress insts committed: 92, IPC: 0000.092
8000000: Event_62: system.cpu progress event, total committed:652, progress insts committed: 74, IPC: 0000.074
src/sim/syscall_emul.cc:85: warn: ignoring syscall set_robust_list(...)
      (further warnings will be suppressed)
9000000: Event_62: system.cpu progress event, total committed:746, progress insts committed: 94, IPC: 0000.094
10000000: Event_62: system.cpu progress event, total committed:819, progress insts committed: 73, IPC: 0000.073
11000000: Event_62: system.cpu progress event, total committed:900, progress insts committed: 81, IPC: 0000.081
12000000: Event_62: system.cpu progress event, total committed:1025, progress insts committed: 125, IPC: 0000.125
src/sim/syscall_emul.hh:1014: warn: readlink() called on '/proc/self/exe' may yield unexpected results in various settings.
      Returning '/home/xfalc/arq/TP4_EX4/bench/bin/dijkstra_small'
src/sim/mem_state.cc:443: info: Increasing stack size by one page.
13000000: Event_62: system.cpu progress event, total committed:1146, progress insts committed: 121, IPC: 0000.121
14000000: Event_62: system.cpu progress event, total committed:1202, progress insts committed: 56, IPC: 0000.056
15000000: Event_62: system.cpu progress event, total committed:1396, progress insts committed: 194, IPC: 0000.194
16000000: Event_62: system.cpu progress event, total committed:1530, progress insts committed: 134, IPC: 0000.134
17000000: Event_62: system.cpu progress event, total committed:1726, progress insts committed: 196, IPC: 0000.196
18000000: Event_62: system.cpu progress event, total committed:1839, progress insts committed: 113, IPC: 0000.113
19000000: Event_62: system.cpu progress event, total committed:1948, progress insts committed: 109, IPC: 0000.109
20000000: Event_62: system.cpu progress event, total committed:2058, progress insts committed: 110, IPC: 00000.11
21000000: Event_62: system.cpu progress event, total committed:2137, progress insts committed: 79, IPC: 0000.079
22000000: Event_62: system.cpu progress event, total committed:2204, progress insts committed: 67, IPC: 0000.067
23000000: Event_62: system.cpu progress event, total committed:2281, progress insts committed: 77, IPC: 0000.077
24000000: Event_62: system.cpu progress event, total committed:2345, progress insts committed: 64, IPC: 0000.064
25000000: Event_62: system.cpu progress event, total committed:2454, progress insts committed: 109, IPC: 0000.109
26000000: Event_62: system.cpu progress event, total committed:2575, progress insts committed: 121, IPC: 0000.121
27000000: Event_62: system.cpu progress event, total committed:2700, progress insts committed: 125, IPC: 0000.125
28000000: Event_62: system.cpu progress event, total committed:2894, progress insts committed: 194, IPC: 0000.194
29000000: Event_62: system.cpu progress event, total committed:2988, progress insts committed: 94, IPC: 0000.094
30000000: Event_62: system.cpu progress event, total committed:3066, progress insts committed: 78, IPC: 0000.078
31000000: Event_62: system.cpu progress event, total committed:3281, progress insts committed: 215, IPC: 0000.215
32000000: Event_62: system.cpu progress event, total committed:3522, progress insts committed: 241, IPC: 0000.241
33000000: Event_62: system.cpu progress event, total committed:3682, progress insts committed: 160, IPC: 00000.16
34000000: Event_62: system.cpu progress event, total committed:3822, progress insts committed: 140, IPC: 00000.14
35000000: Event_62: system.cpu progress event, total committed:4024, progress insts committed: 202, IPC: 0000.202
36000000: Event_62: system.cpu progress event, total committed:4105, progress insts committed: 81, IPC: 0000.081
37000000: Event_62: system.cpu progress event, total committed:4218, progress insts committed: 113, IPC: 0000.113
38000000: Event_62: system.cpu progress event, total committed:4477, progress insts committed: 259, IPC: 0000.259
39000000: Event_62: system.cpu progress event, total committed:4680, progress insts committed: 203, IPC: 0000.203
src/sim/syscall_emul.cc:74: warn: ignoring syscall mprotect(...)
40000000: Event_62: system.cpu progress event, total committed:4748, progress insts committed: 68, IPC: 0000.068
41000000: Event_62: system.cpu progress event, total committed:4883, progress insts committed: 135, IPC: 0000.135
42000000: Event_62: system.cpu progress event, total committed:4982, progress insts committed: 99, IPC: 0000.099
43000000: Event_62: system.cpu progress event, total committed:5050, progress insts committed: 68, IPC: 0000.068
44000000: Event_62: system.cpu progress event, total committed:5156, progress insts committed: 106, IPC: 0000.106
45000000: Event_62: system.cpu progress event, total committed:5260, progress insts committed: 104, IPC: 0000.104
46000000: Event_62: system.cpu progress event, total committed:5466, progress insts committed: 206, IPC: 0000.206
47000000: Event_62: system.cpu progress event, total committed:5529, progress insts committed: 63, IPC: 0000.063
48000000: Event_62: system.cpu progress event, total committed:5656, progress insts committed: 127, IPC: 0000.127
49000000: Event_62: system.cpu progress event, total committed:5767, progress insts committed: 111, IPC: 0000.111
50000000: Event_62: system.cpu progress event, total committed:5964, progress insts committed: 197, IPC: 0000.197
51000000: Event_62: system.cpu progress event, total committed:6187, progress insts committed: 223, IPC: 0000.223
52000000: Event_62: system.cpu progress event, total committed:6451, progress insts committed: 264, IPC: 0000.264
53000000: Event_62: system.cpu progress event, total committed:6713, progress insts committed: 262, IPC: 0000.262
54000000: Event_62: system.cpu progress event, total committed:6968, progress insts committed: 255, IPC: 0000.255
55000000: Event_62: system.cpu progress event, total committed:7221, progress insts committed: 253, IPC: 0000.253
56000000: Event_62: system.cpu progress event, total committed:7489, progress insts committed: 268, IPC: 0000.268
57000000: Event_62: system.cpu progress event, total committed:7781, progress insts committed: 292, IPC: 0000.292
58000000: Event_62: system.cpu progress event, total committed:8026, progress insts committed: 245, IPC: 0000.245
59000000: Event_62: system.cpu progress event, total committed:8288, progress insts committed: 262, IPC: 0000.262
60000000: Event_62: system.cpu progress event, total committed:8539, progress insts committed: 251, IPC: 0000.251
61000000: Event_62: system.cpu progress event, total committed:8794, progress insts committed: 255, IPC: 0000.255
62000000: Event_62: system.cpu progress event, total committed:9016, progress insts committed: 222, IPC: 0000.222
63000000: Event_62: system.cpu progress event, total committed:9214, progress insts committed: 198, IPC: 0000.198
64000000: Event_62: system.cpu progress event, total committed:9460, progress insts committed: 246, IPC: 0000.246
65000000: Event_62: system.cpu progress event, total committed:9705, progress insts committed: 245, IPC: 0000.245
66000000: Event_62: system.cpu progress event, total committed:9958, progress insts committed: 253, IPC: 0000.253
67000000: Event_62: system.cpu progress event, total committed:10226, progress insts committed: 268, IPC: 0000.268
68000000: Event_62: system.cpu progress event, total committed:10485, progress insts committed: 259, IPC: 0000.259
69000000: Event_62: system.cpu progress event, total committed:10753, progress insts committed: 268, IPC: 0000.268
70000000: Event_62: system.cpu progress event, total committed:11022, progress insts committed: 269, IPC: 0000.269
71000000: Event_62: system.cpu progress event, total committed:11215, progress insts committed: 193, IPC: 0000.193
72000000: Event_62: system.cpu progress event, total committed:11460, progress insts committed: 245, IPC: 0000.245
73000000: Event_62: system.cpu progress event, total committed:11729, progress insts committed: 269, IPC: 0000.269
74000000: Event_62: system.cpu progress event, total committed:11997, progress insts committed: 268, IPC: 0000.268
75000000: Event_62: system.cpu progress event, total committed:12220, progress insts committed: 223, IPC: 0000.223
76000000: Event_62: system.cpu progress event, total committed:12500, progress insts committed: 280, IPC: 00000.28
77000000: Event_62: system.cpu progress event, total committed:12736, progress insts committed: 236, IPC: 0000.236
78000000: Event_62: system.cpu progress event, total committed:12974, progress insts committed: 238, IPC: 0000.238
79000000: Event_62: system.cpu progress event, total committed:13153, progress insts committed: 179, IPC: 0000.179
80000000: Event_62: system.cpu progress event, total committed:13398, progress insts committed: 245, IPC: 0000.245
81000000: Event_62: system.cpu progress event, total committed:13643, progress insts committed: 245, IPC: 0000.245
82000000: Event_62: system.cpu progress event, total committed:13912, progress insts committed: 269, IPC: 0000.269
83000000: Event_62: system.cpu progress event, total committed:14153, progress insts committed: 241, IPC: 0000.241
84000000: Event_62: system.cpu progress event, total committed:14421, progress insts committed: 268, IPC: 0000.268
85000000: Event_62: system.cpu progress event, total committed:14689, progress insts committed: 268, IPC: 0000.268
86000000: Event_62: system.cpu progress event, total committed:14932, progress insts committed: 243, IPC: 0000.243
87000000: Event_62: system.cpu progress event, total committed:15175, progress insts committed: 243, IPC: 0000.243
88000000: Event_62: system.cpu progress event, total committed:15420, progress insts committed: 245, IPC: 0000.245
89000000: Event_62: system.cpu progress event, total committed:15689, progress insts committed: 269, IPC: 0000.269
90000000: Event_62: system.cpu progress event, total committed:15935, progress insts committed: 246, IPC: 0000.246
91000000: Event_62: system.cpu progress event, total committed:16158, progress insts committed: 223, IPC: 0000.223
92000000: Event_62: system.cpu progress event, total committed:16421, progress insts committed: 263, IPC: 0000.263
93000000: Event_62: system.cpu progress event, total committed:16667, progress insts committed: 246, IPC: 0000.246
94000000: Event_62: system.cpu progress event, total committed:16920, progress insts committed: 253, IPC: 0000.253
95000000: Event_62: system.cpu progress event, total committed:17143, progress insts committed: 223, IPC: 0000.223
96000000: Event_62: system.cpu progress event, total committed:17388, progress insts committed: 245, IPC: 0000.245
97000000: Event_62: system.cpu progress event, total committed:17654, progress insts committed: 266, IPC: 0000.266
98000000: Event_62: system.cpu progress event, total committed:17901, progress insts committed: 247, IPC: 0000.247
99000000: Event_62: system.cpu progress event, total committed:18169, progress insts committed: 268, IPC: 0000.268
100000000: Event_62: system.cpu progress event, total committed:18411, progress insts committed: 242, IPC: 0000.242
101000000: Event_62: system.cpu progress event, total committed:18652, progress insts committed: 241, IPC: 0000.241
102000000: Event_62: system.cpu progress event, total committed:18892, progress insts committed: 240, IPC: 00000.24
103000000: Event_62: system.cpu progress event, total committed:19129, progress insts committed: 237, IPC: 0000.237
104000000: Event_62: system.cpu progress event, total committed:19372, progress insts committed: 243, IPC: 0000.243
105000000: Event_62: system.cpu progress event, total committed:19620, progress insts committed: 248, IPC: 0000.248
106000000: Event_62: system.cpu progress event, total committed:19865, progress insts committed: 245, IPC: 0000.245
107000000: Event_62: system.cpu progress event, total committed:20118, progress insts committed: 253, IPC: 0000.253
108000000: Event_62: system.cpu progress event, total committed:20375, progress insts committed: 257, IPC: 0000.257
109000000: Event_62: system.cpu progress event, total committed:20621, progress insts committed: 246, IPC: 0000.246
110000000: Event_62: system.cpu progress event, total committed:20874, progress insts committed: 253, IPC: 0000.253
111000000: Event_62: system.cpu progress event, total committed:21141, progress insts committed: 267, IPC: 0000.267
112000000: Event_62: system.cpu progress event, total committed:21411, progress insts committed: 270, IPC: 00000.27
113000000: Event_62: system.cpu progress event, total committed:21652, progress insts committed: 241, IPC: 0000.241
114000000: Event_62: system.cpu progress event, total committed:21901, progress insts committed: 249, IPC: 0000.249
115000000: Event_62: system.cpu progress event, total committed:22169, progress insts committed: 268, IPC: 0000.268
116000000: Event_62: system.cpu progress event, total committed:22437, progress insts committed: 268, IPC: 0000.268
117000000: Event_62: system.cpu progress event, total committed:22694, progress insts committed: 257, IPC: 0000.257
118000000: Event_62: system.cpu progress event, total committed:22895, progress insts committed: 201, IPC: 0000.201
119000000: Event_62: system.cpu progress event, total committed:23140, progress insts committed: 245, IPC: 0000.245
120000000: Event_62: system.cpu progress event, total committed:23409, progress insts committed: 269, IPC: 0000.269
121000000: Event_62: system.cpu progress event, total committed:23654, progress insts committed: 245, IPC: 0000.245
122000000: Event_62: system.cpu progress event, total committed:23921, progress insts committed: 267, IPC: 0000.267
123000000: Event_62: system.cpu progress event, total committed:24162, progress insts committed: 241, IPC: 0000.241
124000000: Event_62: system.cpu progress event, total committed:24412, progress insts committed: 250, IPC: 00000.25
125000000: Event_62: system.cpu progress event, total committed:24672, progress insts committed: 260, IPC: 00000.26
126000000: Event_62: system.cpu progress event, total committed:24917, progress insts committed: 245, IPC: 0000.245
127000000: Event_62: system.cpu progress event, total committed:25186, progress insts committed: 269, IPC: 0000.269
128000000: Event_62: system.cpu progress event, total committed:25431, progress insts committed: 245, IPC: 0000.245
129000000: Event_62: system.cpu progress event, total committed:25699, progress insts committed: 268, IPC: 0000.268
130000000: Event_62: system.cpu progress event, total committed:25921, progress insts committed: 222, IPC: 0000.222
131000000: Event_62: system.cpu progress event, total committed:26163, progress insts committed: 242, IPC: 0000.242
132000000: Event_62: system.cpu progress event, total committed:26431, progress insts committed: 268, IPC: 0000.268
133000000: Event_62: system.cpu progress event, total committed:26598, progress insts committed: 167, IPC: 0000.167
134000000: Event_62: system.cpu progress event, total committed:26845, progress insts committed: 247, IPC: 0000.247
135000000: Event_62: system.cpu progress event, total committed:27091, progress insts committed: 246, IPC: 0000.246
136000000: Event_62: system.cpu progress event, total committed:27359, progress insts committed: 268, IPC: 0000.268
137000000: Event_62: system.cpu progress event, total committed:27605, progress insts committed: 246, IPC: 0000.246
138000000: Event_62: system.cpu progress event, total committed:27851, progress insts committed: 246, IPC: 0000.246
139000000: Event_62: system.cpu progress event, total committed:28091, progress insts committed: 240, IPC: 00000.24
140000000: Event_62: system.cpu progress event, total committed:28355, progress insts committed: 264, IPC: 0000.264
141000000: Event_62: system.cpu progress event, total committed:28612, progress insts committed: 257, IPC: 0000.257
142000000: Event_62: system.cpu progress event, total committed:28852, progress insts committed: 240, IPC: 00000.24
143000000: Event_62: system.cpu progress event, total committed:29092, progress insts committed: 240, IPC: 00000.24
144000000: Event_62: system.cpu progress event, total committed:29332, progress insts committed: 240, IPC: 00000.24
145000000: Event_62: system.cpu progress event, total committed:29599, progress insts committed: 267, IPC: 0000.267
146000000: Event_62: system.cpu progress event, total committed:29845, progress insts committed: 246, IPC: 0000.246
147000000: Event_62: system.cpu progress event, total committed:30110, progress insts committed: 265, IPC: 0000.265
148000000: Event_62: system.cpu progress event, total committed:30355, progress insts committed: 245, IPC: 0000.245
149000000: Event_62: system.cpu progress event, total committed:30613, progress insts committed: 258, IPC: 0000.258
150000000: Event_62: system.cpu progress event, total committed:30881, progress insts committed: 268, IPC: 0000.268
151000000: Event_62: system.cpu progress event, total committed:31127, progress insts committed: 246, IPC: 0000.246
152000000: Event_62: system.cpu progress event, total committed:31349, progress insts committed: 222, IPC: 0000.222
153000000: Event_62: system.cpu progress event, total committed:31612, progress insts committed: 263, IPC: 0000.263
154000000: Event_62: system.cpu progress event, total committed:31852, progress insts committed: 240, IPC: 00000.24
155000000: Event_62: system.cpu progress event, total committed:32103, progress insts committed: 251, IPC: 0000.251
156000000: Event_62: system.cpu progress event, total committed:32332, progress insts committed: 229, IPC: 0000.229
157000000: Event_62: system.cpu progress event, total committed:32576, progress insts committed: 244, IPC: 0000.244
158000000: Event_62: system.cpu progress event, total committed:32822, progress insts committed: 246, IPC: 0000.246
159000000: Event_62: system.cpu progress event, total committed:33091, progress insts committed: 269, IPC: 0000.269
160000000: Event_62: system.cpu progress event, total committed:33336, progress insts committed: 245, IPC: 0000.245
161000000: Event_62: system.cpu progress event, total committed:33605, progress insts committed: 269, IPC: 0000.269
162000000: Event_62: system.cpu progress event, total committed:33873, progress insts committed: 268, IPC: 0000.268
163000000: Event_62: system.cpu progress event, total committed:34132, progress insts committed: 259, IPC: 0000.259
164000000: Event_62: system.cpu progress event, total committed:34296, progress insts committed: 164, IPC: 0000.164
165000000: Event_62: system.cpu progress event, total committed:34542, progress insts committed: 246, IPC: 0000.246
166000000: Event_62: system.cpu progress event, total committed:34811, progress insts committed: 269, IPC: 0000.269
167000000: Event_62: system.cpu progress event, total committed:35055, progress insts committed: 244, IPC: 0000.244
168000000: Event_62: system.cpu progress event, total committed:35299, progress insts committed: 244, IPC: 0000.244
169000000: Event_62: system.cpu progress event, total committed:35569, progress insts committed: 270, IPC: 00000.27
170000000: Event_62: system.cpu progress event, total committed:35812, progress insts committed: 243, IPC: 0000.243
171000000: Event_62: system.cpu progress event, total committed:36054, progress insts committed: 242, IPC: 0000.242
172000000: Event_62: system.cpu progress event, total committed:36259, progress insts committed: 205, IPC: 0000.205
173000000: Event_62: system.cpu progress event, total committed:36529, progress insts committed: 270, IPC: 00000.27
174000000: Event_62: system.cpu progress event, total committed:36774, progress insts committed: 245, IPC: 0000.245
175000000: Event_62: system.cpu progress event, total committed:37041, progress insts committed: 267, IPC: 0000.267
176000000: Event_62: system.cpu progress event, total committed:37287, progress insts committed: 246, IPC: 0000.246
177000000: Event_62: system.cpu progress event, total committed:37555, progress insts committed: 268, IPC: 0000.268
178000000: Event_62: system.cpu progress event, total committed:37823, progress insts committed: 268, IPC: 0000.268
179000000: Event_62: system.cpu progress event, total committed:38087, progress insts committed: 264, IPC: 0000.264
180000000: Event_62: system.cpu progress event, total committed:38273, progress insts committed: 186, IPC: 0000.186
181000000: Event_62: system.cpu progress event, total committed:38541, progress insts committed: 268, IPC: 0000.268
182000000: Event_62: system.cpu progress event, total committed:38787, progress insts committed: 246, IPC: 0000.246
183000000: Event_62: system.cpu progress event, total committed:39052, progress insts committed: 265, IPC: 0000.265
184000000: Event_62: system.cpu progress event, total committed:39292, progress insts committed: 240, IPC: 00000.24
185000000: Event_62: system.cpu progress event, total committed:39532, progress insts committed: 240, IPC: 00000.24
186000000: Event_62: system.cpu progress event, total committed:39787, progress insts committed: 255, IPC: 0000.255
187000000: Event_62: system.cpu progress event, total committed:40012, progress insts committed: 225, IPC: 0000.225
188000000: Event_62: system.cpu progress event, total committed:40211, progress insts committed: 199, IPC: 0000.199
189000000: Event_62: system.cpu progress event, total committed:40479, progress insts committed: 268, IPC: 0000.268
190000000: Event_62: system.cpu progress event, total committed:40732, progress insts committed: 253, IPC: 0000.253
191000000: Event_62: system.cpu progress event, total committed:40994, progress insts committed: 262, IPC: 0000.262
192000000: Event_62: system.cpu progress event, total committed:41239, progress insts committed: 245, IPC: 0000.245
193000000: Event_62: system.cpu progress event, total committed:41507, progress insts committed: 268, IPC: 0000.268
194000000: Event_62: system.cpu progress event, total committed:41748, progress insts committed: 241, IPC: 0000.241
195000000: Event_62: system.cpu progress event, total committed:41932, progress insts committed: 184, IPC: 0000.184
196000000: Event_62: system.cpu progress event, total committed:42176, progress insts committed: 244, IPC: 0000.244
197000000: Event_62: system.cpu progress event, total committed:42438, progress insts committed: 262, IPC: 0000.262
198000000: Event_62: system.cpu progress event, total committed:42678, progress insts committed: 240, IPC: 00000.24
199000000: Event_62: system.cpu progress event, total committed:42922, progress insts committed: 244, IPC: 0000.244
200000000: Event_62: system.cpu progress event, total committed:43191, progress insts committed: 269, IPC: 0000.269
201000000: Event_62: system.cpu progress event, total committed:43459, progress insts committed: 268, IPC: 0000.268
202000000: Event_62: system.cpu progress event, total committed:43728, progress insts committed: 269, IPC: 0000.269
203000000: Event_62: system.cpu progress event, total committed:43916, progress insts committed: 188, IPC: 0000.188
204000000: Event_62: system.cpu progress event, total committed:44140, progress insts committed: 224, IPC: 0000.224
205000000: Event_62: system.cpu progress event, total committed:44408, progress insts committed: 268, IPC: 0000.268
206000000: Event_62: system.cpu progress event, total committed:44676, progress insts committed: 268, IPC: 0000.268
207000000: Event_62: system.cpu progress event, total committed:44931, progress insts committed: 255, IPC: 0000.255
208000000: Event_62: system.cpu progress event, total committed:45189, progress insts committed: 258, IPC: 0000.258
209000000: Event_62: system.cpu progress event, total committed:45458, progress insts committed: 269, IPC: 0000.269
210000000: Event_62: system.cpu progress event, total committed:45722, progress insts committed: 264, IPC: 0000.264
211000000: Event_62: system.cpu progress event, total committed:45985, progress insts committed: 263, IPC: 0000.263
212000000: Event_62: system.cpu progress event, total committed:46208, progress insts committed: 223, IPC: 0000.223
213000000: Event_62: system.cpu progress event, total committed:46453, progress insts committed: 245, IPC: 0000.245
214000000: Event_62: system.cpu progress event, total committed:46698, progress insts committed: 245, IPC: 0000.245
215000000: Event_62: system.cpu progress event, total committed:46944, progress insts committed: 246, IPC: 0000.246
216000000: Event_62: system.cpu progress event, total committed:47184, progress insts committed: 240, IPC: 00000.24
217000000: Event_62: system.cpu progress event, total committed:47451, progress insts committed: 267, IPC: 0000.267
218000000: Event_62: system.cpu progress event, total committed:47698, progress insts committed: 247, IPC: 0000.247
219000000: Event_62: system.cpu progress event, total committed:47957, progress insts committed: 259, IPC: 0000.259
220000000: Event_62: system.cpu progress event, total committed:48207, progress insts committed: 250, IPC: 00000.25
221000000: Event_62: system.cpu progress event, total committed:48476, progress insts committed: 269, IPC: 0000.269
222000000: Event_62: system.cpu progress event, total committed:48698, progress insts committed: 222, IPC: 0000.222
223000000: Event_62: system.cpu progress event, total committed:48967, progress insts committed: 269, IPC: 0000.269
224000000: Event_62: system.cpu progress event, total committed:49212, progress insts committed: 245, IPC: 0000.245
225000000: Event_62: system.cpu progress event, total committed:49453, progress insts committed: 241, IPC: 0000.241
226000000: Event_62: system.cpu progress event, total committed:49720, progress insts committed: 267, IPC: 0000.267
227000000: Event_62: system.cpu progress event, total committed:49971, progress insts committed: 251, IPC: 0000.251
228000000: Event_62: system.cpu progress event, total committed:50220, progress insts committed: 249, IPC: 0000.249
229000000: Event_62: system.cpu progress event, total committed:50451, progress insts committed: 231, IPC: 0000.231
230000000: Event_62: system.cpu progress event, total committed:50711, progress insts committed: 260, IPC: 00000.26
231000000: Event_62: system.cpu progress event, total committed:50980, progress insts committed: 269, IPC: 0000.269
232000000: Event_62: system.cpu progress event, total committed:51248, progress insts committed: 268, IPC: 0000.268
233000000: Event_62: system.cpu progress event, total committed:51512, progress insts committed: 264, IPC: 0000.264
234000000: Event_62: system.cpu progress event, total committed:51753, progress insts committed: 241, IPC: 0000.241
235000000: Event_62: system.cpu progress event, total committed:52011, progress insts committed: 258, IPC: 0000.258
236000000: Event_62: system.cpu progress event, total committed:52249, progress insts committed: 238, IPC: 0000.238
237000000: Event_62: system.cpu progress event, total committed:52489, progress insts committed: 240, IPC: 00000.24
238000000: Event_62: system.cpu progress event, total committed:52729, progress insts committed: 240, IPC: 00000.24
239000000: Event_62: system.cpu progress event, total committed:52996, progress insts committed: 267, IPC: 0000.267
240000000: Event_62: system.cpu progress event, total committed:53261, progress insts committed: 265, IPC: 0000.265
241000000: Event_62: system.cpu progress event, total committed:53507, progress insts committed: 246, IPC: 0000.246
242000000: Event_62: system.cpu progress event, total committed:53770, progress insts committed: 263, IPC: 0000.263
243000000: Event_62: system.cpu progress event, total committed:54037, progress insts committed: 267, IPC: 0000.267
244000000: Event_62: system.cpu progress event, total committed:54260, progress insts committed: 223, IPC: 0000.223
245000000: Event_62: system.cpu progress event, total committed:54506, progress insts committed: 246, IPC: 0000.246
246000000: Event_62: system.cpu progress event, total committed:54769, progress insts committed: 263, IPC: 0000.263
247000000: Event_62: system.cpu progress event, total committed:55009, progress insts committed: 240, IPC: 00000.24
248000000: Event_62: system.cpu progress event, total committed:55249, progress insts committed: 240, IPC: 00000.24
249000000: Event_62: system.cpu progress event, total committed:55489, progress insts committed: 240, IPC: 00000.24
250000000: Event_62: system.cpu progress event, total committed:55702, progress insts committed: 213, IPC: 0000.213
251000000: Event_62: system.cpu progress event, total committed:55969, progress insts committed: 267, IPC: 0000.267
252000000: Event_62: system.cpu progress event, total committed:56215, progress insts committed: 246, IPC: 0000.246
253000000: Event_62: system.cpu progress event, total committed:56484, progress insts committed: 269, IPC: 0000.269
254000000: Event_62: system.cpu progress event, total committed:56752, progress insts committed: 268, IPC: 0000.268
255000000: Event_62: system.cpu progress event, total committed:57020, progress insts committed: 268, IPC: 0000.268
256000000: Event_62: system.cpu progress event, total committed:57289, progress insts committed: 269, IPC: 0000.269
257000000: Event_62: system.cpu progress event, total committed:57529, progress insts committed: 240, IPC: 00000.24
258000000: Event_62: system.cpu progress event, total committed:57705, progress insts committed: 176, IPC: 0000.176
259000000: Event_62: system.cpu progress event, total committed:57973, progress insts committed: 268, IPC: 0000.268
260000000: Event_62: system.cpu progress event, total committed:58218, progress insts committed: 245, IPC: 0000.245
261000000: Event_62: system.cpu progress event, total committed:58487, progress insts committed: 269, IPC: 0000.269
262000000: Event_62: system.cpu progress event, total committed:58731, progress insts committed: 244, IPC: 0000.244
263000000: Event_62: system.cpu progress event, total committed:58995, progress insts committed: 264, IPC: 0000.264
264000000: Event_62: system.cpu progress event, total committed:59241, progress insts committed: 246, IPC: 0000.246
265000000: Event_62: system.cpu progress event, total committed:59449, progress insts committed: 208, IPC: 0000.208
266000000: Event_62: system.cpu progress event, total committed:59689, progress insts committed: 240, IPC: 00000.24
267000000: Event_62: system.cpu progress event, total committed:59937, progress insts committed: 248, IPC: 0000.248
268000000: Event_62: system.cpu progress event, total committed:60169, progress insts committed: 232, IPC: 0000.232
269000000: Event_62: system.cpu progress event, total committed:60409, progress insts committed: 240, IPC: 00000.24
270000000: Event_62: system.cpu progress event, total committed:60649, progress insts committed: 240, IPC: 00000.24
271000000: Event_62: system.cpu progress event, total committed:60889, progress insts committed: 240, IPC: 00000.24
272000000: Event_62: system.cpu progress event, total committed:61129, progress insts committed: 240, IPC: 00000.24
273000000: Event_62: system.cpu progress event, total committed:61377, progress insts committed: 248, IPC: 0000.248
274000000: Event_62: system.cpu progress event, total committed:61658, progress insts committed: 281, IPC: 0000.281
275000000: Event_62: system.cpu progress event, total committed:61920, progress insts committed: 262, IPC: 0000.262
276000000: Event_62: system.cpu progress event, total committed:62208, progress insts committed: 288, IPC: 0000.288
277000000: Event_62: system.cpu progress event, total committed:62461, progress insts committed: 253, IPC: 0000.253
278000000: Event_62: system.cpu progress event, total committed:62723, progress insts committed: 262, IPC: 0000.262
279000000: Event_62: system.cpu progress event, total committed:62967, progress insts committed: 244, IPC: 0000.244
280000000: Event_62: system.cpu progress event, total committed:63237, progress insts committed: 270, IPC: 00000.27
281000000: Event_62: system.cpu progress event, total committed:63500, progress insts committed: 263, IPC: 0000.263
282000000: Event_62: system.cpu progress event, total committed:63745, progress insts committed: 245, IPC: 0000.245
283000000: Event_62: system.cpu progress event, total committed:63990, progress insts committed: 245, IPC: 0000.245
284000000: Event_62: system.cpu progress event, total committed:64236, progress insts committed: 246, IPC: 0000.246
285000000: Event_62: system.cpu progress event, total committed:64481, progress insts committed: 245, IPC: 0000.245
286000000: Event_62: system.cpu progress event, total committed:64741, progress insts committed: 260, IPC: 00000.26
287000000: Event_62: system.cpu progress event, total committed:64981, progress insts committed: 240, IPC: 00000.24
288000000: Event_62: system.cpu progress event, total committed:65230, progress insts committed: 249, IPC: 0000.249
289000000: Event_62: system.cpu progress event, total committed:65511, progress insts committed: 281, IPC: 0000.281
290000000: Event_62: system.cpu progress event, total committed:65756, progress insts committed: 245, IPC: 0000.245
291000000: Event_62: system.cpu progress event, total committed:66002, progress insts committed: 246, IPC: 0000.246
292000000: Event_62: system.cpu progress event, total committed:66223, progress insts committed: 221, IPC: 0000.221
293000000: Event_62: system.cpu progress event, total committed:66493, progress insts committed: 270, IPC: 00000.27
294000000: Event_62: system.cpu progress event, total committed:66738, progress insts committed: 245, IPC: 0000.245
295000000: Event_62: system.cpu progress event, total committed:67001, progress insts committed: 263, IPC: 0000.263
296000000: Event_62: system.cpu progress event, total committed:67270, progress insts committed: 269, IPC: 0000.269
297000000: Event_62: system.cpu progress event, total committed:67471, progress insts committed: 201, IPC: 0000.201
298000000: Event_62: system.cpu progress event, total committed:67739, progress insts committed: 268, IPC: 0000.268
299000000: Event_62: system.cpu progress event, total committed:67961, progress insts committed: 222, IPC: 0000.222
300000000: Event_62: system.cpu progress event, total committed:68207, progress insts committed: 246, IPC: 0000.246
301000000: Event_62: system.cpu progress event, total committed:68495, progress insts committed: 288, IPC: 0000.288
302000000: Event_62: system.cpu progress event, total committed:68756, progress insts committed: 261, IPC: 0000.261
303000000: Event_62: system.cpu progress event, total committed:68998, progress insts committed: 242, IPC: 0000.242
304000000: Event_62: system.cpu progress event, total committed:69205, progress insts committed: 207, IPC: 0000.207
305000000: Event_62: system.cpu progress event, total committed:69470, progress insts committed: 265, IPC: 0000.265
306000000: Event_62: system.cpu progress event, total committed:69714, progress insts committed: 244, IPC: 0000.244
307000000: Event_62: system.cpu progress event, total committed:69983, progress insts committed: 269, IPC: 0000.269
308000000: Event_62: system.cpu progress event, total committed:70206, progress insts committed: 223, IPC: 0000.223
309000000: Event_62: system.cpu progress event, total committed:70474, progress insts committed: 268, IPC: 0000.268
310000000: Event_62: system.cpu progress event, total committed:70715, progress insts committed: 241, IPC: 0000.241
311000000: Event_62: system.cpu progress event, total committed:70938, progress insts committed: 223, IPC: 0000.223
312000000: Event_62: system.cpu progress event, total committed:71188, progress insts committed: 250, IPC: 00000.25
313000000: Event_62: system.cpu progress event, total committed:71456, progress insts committed: 268, IPC: 0000.268
314000000: Event_62: system.cpu progress event, total committed:71724, progress insts committed: 268, IPC: 0000.268
315000000: Event_62: system.cpu progress event, total committed:71965, progress insts committed: 241, IPC: 0000.241
316000000: Event_62: system.cpu progress event, total committed:72215, progress insts committed: 250, IPC: 00000.25
317000000: Event_62: system.cpu progress event, total committed:72461, progress insts committed: 246, IPC: 0000.246
318000000: Event_62: system.cpu progress event, total committed:72729, progress insts committed: 268, IPC: 0000.268
319000000: Event_62: system.cpu progress event, total committed:72993, progress insts committed: 264, IPC: 0000.264
320000000: Event_62: system.cpu progress event, total committed:73200, progress insts committed: 207, IPC: 0000.207
321000000: Event_62: system.cpu progress event, total committed:73470, progress insts committed: 270, IPC: 00000.27
322000000: Event_62: system.cpu progress event, total committed:73738, progress insts committed: 268, IPC: 0000.268
323000000: Event_62: system.cpu progress event, total committed:73983, progress insts committed: 245, IPC: 0000.245
324000000: Event_62: system.cpu progress event, total committed:74228, progress insts committed: 245, IPC: 0000.245
325000000: Event_62: system.cpu progress event, total committed:74473, progress insts committed: 245, IPC: 0000.245
326000000: Event_62: system.cpu progress event, total committed:74714, progress insts committed: 241, IPC: 0000.241
327000000: Event_62: system.cpu progress event, total committed:74965, progress insts committed: 251, IPC: 0000.251
328000000: Event_62: system.cpu progress event, total committed:75205, progress insts committed: 240, IPC: 00000.24
329000000: Event_62: system.cpu progress event, total committed:75447, progress insts committed: 242, IPC: 0000.242
330000000: Event_62: system.cpu progress event, total committed:75691, progress insts committed: 244, IPC: 0000.244
331000000: Event_62: system.cpu progress event, total committed:75937, progress insts committed: 246, IPC: 0000.246
332000000: Event_62: system.cpu progress event, total committed:76205, progress insts committed: 268, IPC: 0000.268
333000000: Event_62: system.cpu progress event, total committed:76474, progress insts committed: 269, IPC: 0000.269
334000000: Event_62: system.cpu progress event, total committed:76737, progress insts committed: 263, IPC: 0000.263
335000000: Event_62: system.cpu progress event, total committed:76982, progress insts committed: 245, IPC: 0000.245
336000000: Event_62: system.cpu progress event, total committed:77245, progress insts committed: 263, IPC: 0000.263
337000000: Event_62: system.cpu progress event, total committed:77491, progress insts committed: 246, IPC: 0000.246
338000000: Event_62: system.cpu progress event, total committed:77725, progress insts committed: 234, IPC: 0000.234
339000000: Event_62: system.cpu progress event, total committed:77965, progress insts committed: 240, IPC: 00000.24
340000000: Event_62: system.cpu progress event, total committed:78205, progress insts committed: 240, IPC: 00000.24
341000000: Event_62: system.cpu progress event, total committed:78446, progress insts committed: 241, IPC: 0000.241
342000000: Event_62: system.cpu progress event, total committed:78691, progress insts committed: 245, IPC: 0000.245
343000000: Event_62: system.cpu progress event, total committed:78943, progress insts committed: 252, IPC: 0000.252
344000000: Event_62: system.cpu progress event, total committed:79211, progress insts committed: 268, IPC: 0000.268
345000000: Event_62: system.cpu progress event, total committed:79457, progress insts committed: 246, IPC: 0000.246
346000000: Event_62: system.cpu progress event, total committed:79678, progress insts committed: 221, IPC: 0000.221
347000000: Event_62: system.cpu progress event, total committed:79947, progress insts committed: 269, IPC: 0000.269
348000000: Event_62: system.cpu progress event, total committed:80192, progress insts committed: 245, IPC: 0000.245
349000000: Event_62: system.cpu progress event, total committed:80447, progress insts committed: 255, IPC: 0000.255
350000000: Event_62: system.cpu progress event, total committed:80679, progress insts committed: 232, IPC: 0000.232
351000000: Event_62: system.cpu progress event, total committed:80897, progress insts committed: 218, IPC: 0000.218
352000000: Event_62: system.cpu progress event, total committed:81142, progress insts committed: 245, IPC: 0000.245
353000000: Event_62: system.cpu progress event, total committed:81410, progress insts committed: 268, IPC: 0000.268
354000000: Event_62: system.cpu progress event, total committed:81655, progress insts committed: 245, IPC: 0000.245
355000000: Event_62: system.cpu progress event, total committed:81924, progress insts committed: 269, IPC: 0000.269
356000000: Event_62: system.cpu progress event, total committed:82165, progress insts committed: 241, IPC: 0000.241
357000000: Event_62: system.cpu progress event, total committed:82409, progress insts committed: 244, IPC: 0000.244
358000000: Event_62: system.cpu progress event, total committed:82678, progress insts committed: 269, IPC: 0000.269
359000000: Event_62: system.cpu progress event, total committed:82894, progress insts committed: 216, IPC: 0000.216
360000000: Event_62: system.cpu progress event, total committed:83162, progress insts committed: 268, IPC: 0000.268
361000000: Event_62: system.cpu progress event, total committed:83385, progress insts committed: 223, IPC: 0000.223
362000000: Event_62: system.cpu progress event, total committed:83654, progress insts committed: 269, IPC: 0000.269
363000000: Event_62: system.cpu progress event, total committed:83899, progress insts committed: 245, IPC: 0000.245
364000000: Event_62: system.cpu progress event, total committed:84167, progress insts committed: 268, IPC: 0000.268
365000000: Event_62: system.cpu progress event, total committed:84408, progress insts committed: 241, IPC: 0000.241
366000000: Event_62: system.cpu progress event, total committed:84652, progress insts committed: 244, IPC: 0000.244
367000000: Event_62: system.cpu progress event, total committed:84882, progress insts committed: 230, IPC: 00000.23
368000000: Event_62: system.cpu progress event, total committed:85150, progress insts committed: 268, IPC: 0000.268
369000000: Event_62: system.cpu progress event, total committed:85394, progress insts committed: 244, IPC: 0000.244
370000000: Event_62: system.cpu progress event, total committed:85645, progress insts committed: 251, IPC: 0000.251
371000000: Event_62: system.cpu progress event, total committed:85885, progress insts committed: 240, IPC: 00000.24
372000000: Event_62: system.cpu progress event, total committed:86127, progress insts committed: 242, IPC: 0000.242
373000000: Event_62: system.cpu progress event, total committed:86371, progress insts committed: 244, IPC: 0000.244
374000000: Event_62: system.cpu progress event, total committed:86605, progress insts committed: 234, IPC: 0000.234
375000000: Event_62: system.cpu progress event, total committed:86845, progress insts committed: 240, IPC: 00000.24
376000000: Event_62: system.cpu progress event, total committed:87090, progress insts committed: 245, IPC: 0000.245
377000000: Event_62: system.cpu progress event, total committed:87336, progress insts committed: 246, IPC: 0000.246
378000000: Event_62: system.cpu progress event, total committed:87591, progress insts committed: 255, IPC: 0000.255
379000000: Event_62: system.cpu progress event, total committed:87831, progress insts committed: 240, IPC: 00000.24
380000000: Event_62: system.cpu progress event, total committed:88068, progress insts committed: 237, IPC: 0000.237
381000000: Event_62: system.cpu progress event, total committed:88311, progress insts committed: 243, IPC: 0000.243
382000000: Event_62: system.cpu progress event, total committed:88553, progress insts committed: 242, IPC: 0000.242
383000000: Event_62: system.cpu progress event, total committed:88823, progress insts committed: 270, IPC: 00000.27
384000000: Event_62: system.cpu progress event, total committed:89090, progress insts committed: 267, IPC: 0000.267
385000000: Event_62: system.cpu progress event, total committed:89358, progress insts committed: 268, IPC: 0000.268
386000000: Event_62: system.cpu progress event, total committed:89605, progress insts committed: 247, IPC: 0000.247
387000000: Event_62: system.cpu progress event, total committed:89872, progress insts committed: 267, IPC: 0000.267
388000000: Event_62: system.cpu progress event, total committed:90117, progress insts committed: 245, IPC: 0000.245
389000000: Event_62: system.cpu progress event, total committed:90382, progress insts committed: 265, IPC: 0000.265
390000000: Event_62: system.cpu progress event, total committed:90599, progress insts committed: 217, IPC: 0000.217
391000000: Event_62: system.cpu progress event, total committed:90845, progress insts committed: 246, IPC: 0000.246
392000000: Event_62: system.cpu progress event, total committed:91091, progress insts committed: 246, IPC: 0000.246
393000000: Event_62: system.cpu progress event, total committed:91336, progress insts committed: 245, IPC: 0000.245
394000000: Event_62: system.cpu progress event, total committed:91604, progress insts committed: 268, IPC: 0000.268
395000000: Event_62: system.cpu progress event, total committed:91849, progress insts committed: 245, IPC: 0000.245
396000000: Event_62: system.cpu progress event, total committed:92090, progress insts committed: 241, IPC: 0000.241
397000000: Event_62: system.cpu progress event, total committed:92335, progress insts committed: 245, IPC: 0000.245
398000000: Event_62: system.cpu progress event, total committed:92492, progress insts committed: 157, IPC: 0000.157
399000000: Event_62: system.cpu progress event, total committed:92760, progress insts committed: 268, IPC: 0000.268
400000000: Event_62: system.cpu progress event, total committed:93030, progress insts committed: 270, IPC: 00000.27
401000000: Event_62: system.cpu progress event, total committed:93298, progress insts committed: 268, IPC: 0000.268
402000000: Event_62: system.cpu progress event, total committed:93565, progress insts committed: 267, IPC: 0000.267
403000000: Event_62: system.cpu progress event, total committed:93811, progress insts committed: 246, IPC: 0000.246
404000000: Event_62: system.cpu progress event, total committed:94074, progress insts committed: 263, IPC: 0000.263
405000000: Event_62: system.cpu progress event, total committed:94343, progress insts committed: 269, IPC: 0000.269
406000000: Event_62: system.cpu progress event, total committed:94607, progress insts committed: 264, IPC: 0000.264
407000000: Event_62: system.cpu progress event, total committed:94852, progress insts committed: 245, IPC: 0000.245
408000000: Event_62: system.cpu progress event, total committed:95120, progress insts committed: 268, IPC: 0000.268
409000000: Event_62: system.cpu progress event, total committed:95367, progress insts committed: 247, IPC: 0000.247
410000000: Event_62: system.cpu progress event, total committed:95611, progress insts committed: 244, IPC: 0000.244
411000000: Event_62: system.cpu progress event, total committed:95880, progress insts committed: 269, IPC: 0000.269
412000000: Event_62: system.cpu progress event, total committed:96144, progress insts committed: 264, IPC: 0000.264
413000000: Event_62: system.cpu progress event, total committed:96325, progress insts committed: 181, IPC: 0000.181
414000000: Event_62: system.cpu progress event, total committed:96565, progress insts committed: 240, IPC: 00000.24
415000000: Event_62: system.cpu progress event, total committed:96832, progress insts committed: 267, IPC: 0000.267
416000000: Event_62: system.cpu progress event, total committed:97077, progress insts committed: 245, IPC: 0000.245
417000000: Event_62: system.cpu progress event, total committed:97346, progress insts committed: 269, IPC: 0000.269
418000000: Event_62: system.cpu progress event, total committed:97592, progress insts committed: 246, IPC: 0000.246
419000000: Event_62: system.cpu progress event, total committed:97860, progress insts committed: 268, IPC: 0000.268
420000000: Event_62: system.cpu progress event, total committed:98124, progress insts committed: 264, IPC: 0000.264
421000000: Event_62: system.cpu progress event, total committed:98306, progress insts committed: 182, IPC: 0000.182
422000000: Event_62: system.cpu progress event, total committed:98552, progress insts committed: 246, IPC: 0000.246
423000000: Event_62: system.cpu progress event, total committed:98797, progress insts committed: 245, IPC: 0000.245
424000000: Event_62: system.cpu progress event, total committed:99042, progress insts committed: 245, IPC: 0000.245
425000000: Event_62: system.cpu progress event, total committed:99287, progress insts committed: 245, IPC: 0000.245
426000000: Event_62: system.cpu progress event, total committed:99532, progress insts committed: 245, IPC: 0000.245
427000000: Event_62: system.cpu progress event, total committed:99796, progress insts committed: 264, IPC: 0000.264
428000000: Event_62: system.cpu progress event, total committed:100045, progress insts committed: 249, IPC: 0000.249
429000000: Event_62: system.cpu progress event, total committed:100232, progress insts committed: 187, IPC: 0000.187
430000000: Event_62: system.cpu progress event, total committed:100478, progress insts committed: 246, IPC: 0000.246
431000000: Event_62: system.cpu progress event, total committed:100724, progress insts committed: 246, IPC: 0000.246
432000000: Event_62: system.cpu progress event, total committed:100945, progress insts committed: 221, IPC: 0000.221
433000000: Event_62: system.cpu progress event, total committed:101190, progress insts committed: 245, IPC: 0000.245
434000000: Event_62: system.cpu progress event, total committed:101432, progress insts committed: 242, IPC: 0000.242
435000000: Event_62: system.cpu progress event, total committed:101677, progress insts committed: 245, IPC: 0000.245
436000000: Event_62: system.cpu progress event, total committed:101922, progress insts committed: 245, IPC: 0000.245
437000000: Event_62: system.cpu progress event, total committed:102138, progress insts committed: 216, IPC: 0000.216
438000000: Event_62: system.cpu progress event, total committed:102359, progress insts committed: 221, IPC: 0000.221
439000000: Event_62: system.cpu progress event, total committed:102628, progress insts committed: 269, IPC: 0000.269
440000000: Event_62: system.cpu progress event, total committed:102850, progress insts committed: 222, IPC: 0000.222
441000000: Event_62: system.cpu progress event, total committed:103096, progress insts committed: 246, IPC: 0000.246
442000000: Event_62: system.cpu progress event, total committed:103360, progress insts committed: 264, IPC: 0000.264
443000000: Event_62: system.cpu progress event, total committed:103605, progress insts committed: 245, IPC: 0000.245
444000000: Event_62: system.cpu progress event, total committed:103872, progress insts committed: 267, IPC: 0000.267
445000000: Event_62: system.cpu progress event, total committed:104124, progress insts committed: 252, IPC: 0000.252
446000000: Event_62: system.cpu progress event, total committed:104365, progress insts committed: 241, IPC: 0000.241
447000000: Event_62: system.cpu progress event, total committed:104605, progress insts committed: 240, IPC: 00000.24
448000000: Event_62: system.cpu progress event, total committed:104845, progress insts committed: 240, IPC: 00000.24
449000000: Event_62: system.cpu progress event, total committed:105085, progress insts committed: 240, IPC: 00000.24
450000000: Event_62: system.cpu progress event, total committed:105325, progress insts committed: 240, IPC: 00000.24
451000000: Event_62: system.cpu progress event, total committed:105569, progress insts committed: 244, IPC: 0000.244
452000000: Event_62: system.cpu progress event, total committed:105820, progress insts committed: 251, IPC: 0000.251
453000000: Event_62: system.cpu progress event, total committed:106088, progress insts committed: 268, IPC: 0000.268
454000000: Event_62: system.cpu progress event, total committed:106334, progress insts committed: 246, IPC: 0000.246
455000000: Event_62: system.cpu progress event, total committed:106603, progress insts committed: 269, IPC: 0000.269
456000000: Event_62: system.cpu progress event, total committed:106870, progress insts committed: 267, IPC: 0000.267
457000000: Event_62: system.cpu progress event, total committed:107125, progress insts committed: 255, IPC: 0000.255
458000000: Event_62: system.cpu progress event, total committed:107367, progress insts committed: 242, IPC: 0000.242
459000000: Event_62: system.cpu progress event, total committed:107625, progress insts committed: 258, IPC: 0000.258
460000000: Event_62: system.cpu progress event, total committed:107889, progress insts committed: 264, IPC: 0000.264
461000000: Event_62: system.cpu progress event, total committed:108158, progress insts committed: 269, IPC: 0000.269
462000000: Event_62: system.cpu progress event, total committed:108426, progress insts committed: 268, IPC: 0000.268
463000000: Event_62: system.cpu progress event, total committed:108685, progress insts committed: 259, IPC: 0000.259
464000000: Event_62: system.cpu progress event, total committed:108939, progress insts committed: 254, IPC: 0000.254
465000000: Event_62: system.cpu progress event, total committed:109185, progress insts committed: 246, IPC: 0000.246
466000000: Event_62: system.cpu progress event, total committed:109453, progress insts committed: 268, IPC: 0000.268
467000000: Event_62: system.cpu progress event, total committed:109694, progress insts committed: 241, IPC: 0000.241
468000000: Event_62: system.cpu progress event, total committed:109891, progress insts committed: 197, IPC: 0000.197
469000000: Event_62: system.cpu progress event, total committed:110137, progress insts committed: 246, IPC: 0000.246
470000000: Event_62: system.cpu progress event, total committed:110405, progress insts committed: 268, IPC: 0000.268
471000000: Event_62: system.cpu progress event, total committed:110674, progress insts committed: 269, IPC: 0000.269
472000000: Event_62: system.cpu progress event, total committed:110920, progress insts committed: 246, IPC: 0000.246
473000000: Event_62: system.cpu progress event, total committed:111188, progress insts committed: 268, IPC: 0000.268
474000000: Event_62: system.cpu progress event, total committed:111429, progress insts committed: 241, IPC: 0000.241
475000000: Event_62: system.cpu progress event, total committed:111685, progress insts committed: 256, IPC: 0000.256
476000000: Event_62: system.cpu progress event, total committed:111856, progress insts committed: 171, IPC: 0000.171
477000000: Event_62: system.cpu progress event, total committed:112124, progress insts committed: 268, IPC: 0000.268
478000000: Event_62: system.cpu progress event, total committed:112369, progress insts committed: 245, IPC: 0000.245
479000000: Event_62: system.cpu progress event, total committed:112614, progress insts committed: 245, IPC: 0000.245
480000000: Event_62: system.cpu progress event, total committed:112883, progress insts committed: 269, IPC: 0000.269
481000000: Event_62: system.cpu progress event, total committed:113128, progress insts committed: 245, IPC: 0000.245
482000000: Event_62: system.cpu progress event, total committed:113369, progress insts committed: 241, IPC: 0000.241
483000000: Event_62: system.cpu progress event, total committed:113601, progress insts committed: 232, IPC: 0000.232
484000000: Event_62: system.cpu progress event, total committed:113835, progress insts committed: 234, IPC: 0000.234
485000000: Event_62: system.cpu progress event, total committed:114081, progress insts committed: 246, IPC: 0000.246
486000000: Event_62: system.cpu progress event, total committed:114321, progress insts committed: 240, IPC: 00000.24
487000000: Event_62: system.cpu progress event, total committed:114561, progress insts committed: 240, IPC: 00000.24
488000000: Event_62: system.cpu progress event, total committed:114803, progress insts committed: 242, IPC: 0000.242
489000000: Event_62: system.cpu progress event, total committed:115041, progress insts committed: 238, IPC: 0000.238
490000000: Event_62: system.cpu progress event, total committed:115301, progress insts committed: 260, IPC: 00000.26
491000000: Event_62: system.cpu progress event, total committed:115542, progress insts committed: 241, IPC: 0000.241
492000000: Event_62: system.cpu progress event, total committed:115787, progress insts committed: 245, IPC: 0000.245
493000000: Event_62: system.cpu progress event, total committed:116032, progress insts committed: 245, IPC: 0000.245
494000000: Event_62: system.cpu progress event, total committed:116278, progress insts committed: 246, IPC: 0000.246
495000000: Event_62: system.cpu progress event, total committed:116546, progress insts committed: 268, IPC: 0000.268
496000000: Event_62: system.cpu progress event, total committed:116740, progress insts committed: 194, IPC: 0000.194
497000000: Event_62: system.cpu progress event, total committed:116979, progress insts committed: 239, IPC: 0000.239
498000000: Event_62: system.cpu progress event, total committed:117056, progress insts committed: 77, IPC: 0000.077
499000000: Event_62: system.cpu progress event, total committed:117133, progress insts committed: 77, IPC: 0000.077
500000000: Event_62: system.cpu progress event, total committed:117348, progress insts committed: 215, IPC: 0000.215
501000000: Event_62: system.cpu progress event, total committed:117447, progress insts committed: 99, IPC: 0000.099
502000000: Event_62: system.cpu progress event, total committed:117526, progress insts committed: 79, IPC: 0000.079
503000000: Event_62: system.cpu progress event, total committed:117607, progress insts committed: 81, IPC: 0000.081
504000000: Event_62: system.cpu progress event, total committed:117720, progress insts committed: 113, IPC: 0000.113
505000000: Event_62: system.cpu progress event, total committed:117804, progress insts committed: 84, IPC: 0000.084
506000000: Event_62: system.cpu progress event, total committed:117902, progress insts committed: 98, IPC: 0000.098
507000000: Event_62: system.cpu progress event, total committed:117971, progress insts committed: 69, IPC: 0000.069
508000000: Event_62: system.cpu progress event, total committed:118042, progress insts committed: 71, IPC: 0000.071
509000000: Event_62: system.cpu progress event, total committed:118107, progress insts committed: 65, IPC: 0000.065
510000000: Event_62: system.cpu progress event, total committed:118170, progress insts committed: 63, IPC: 0000.063
511000000: Event_62: system.cpu progress event, total committed:118232, progress insts committed: 62, IPC: 0000.062
512000000: Event_62: system.cpu progress event, total committed:118395, progress insts committed: 163, IPC: 0000.163
513000000: Event_62: system.cpu progress event, total committed:118545, progress insts committed: 150, IPC: 00000.15
514000000: Event_62: system.cpu progress event, total committed:118624, progress insts committed: 79, IPC: 0000.079
515000000: Event_62: system.cpu progress event, total committed:118682, progress insts committed: 58, IPC: 0000.058
516000000: Event_62: system.cpu progress event, total committed:118810, progress insts committed: 128, IPC: 0000.128
517000000: Event_62: system.cpu progress event, total committed:118915, progress insts committed: 105, IPC: 0000.105
518000000: Event_62: system.cpu progress event, total committed:118990, progress insts committed: 75, IPC: 0000.075
519000000: Event_62: system.cpu progress event, total committed:119212, progress insts committed: 222, IPC: 0000.222
520000000: Event_62: system.cpu progress event, total committed:119445, progress insts committed: 233, IPC: 0000.233
521000000: Event_62: system.cpu progress event, total committed:119703, progress insts committed: 258, IPC: 0000.258
522000000: Event_62: system.cpu progress event, total committed:119965, progress insts committed: 262, IPC: 0000.262
523000000: Event_62: system.cpu progress event, total committed:120224, progress insts committed: 259, IPC: 0000.259
524000000: Event_62: system.cpu progress event, total committed:120484, progress insts committed: 260, IPC: 00000.26
525000000: Event_62: system.cpu progress event, total committed:120771, progress insts committed: 287, IPC: 0000.287
526000000: Event_62: system.cpu progress event, total committed:121041, progress insts committed: 270, IPC: 00000.27
527000000: Event_62: system.cpu progress event, total committed:121334, progress insts committed: 293, IPC: 0000.293
528000000: Event_62: system.cpu progress event, total committed:121641, progress insts committed: 307, IPC: 0000.307
529000000: Event_62: system.cpu progress event, total committed:121936, progress insts committed: 295, IPC: 0000.295
530000000: Event_62: system.cpu progress event, total committed:122238, progress insts committed: 302, IPC: 0000.302
531000000: Event_62: system.cpu progress event, total committed:122535, progress insts committed: 297, IPC: 0000.297
532000000: Event_62: system.cpu progress event, total committed:122815, progress insts committed: 280, IPC: 00000.28
533000000: Event_62: system.cpu progress event, total committed:123072, progress insts committed: 257, IPC: 0000.257
534000000: Event_62: system.cpu progress event, total committed:123379, progress insts committed: 307, IPC: 0000.307
535000000: Event_62: system.cpu progress event, total committed:123681, progress insts committed: 302, IPC: 0000.302
536000000: Event_62: system.cpu progress event, total committed:123981, progress insts committed: 300, IPC: 000000.3
537000000: Event_62: system.cpu progress event, total committed:124288, progress insts committed: 307, IPC: 0000.307
538000000: Event_62: system.cpu progress event, total committed:124570, progress insts committed: 282, IPC: 0000.282
539000000: Event_62: system.cpu progress event, total committed:124875, progress insts committed: 305, IPC: 0000.305
540000000: Event_62: system.cpu progress event, total committed:125171, progress insts committed: 296, IPC: 0000.296
541000000: Event_62: system.cpu progress event, total committed:125478, progress insts committed: 307, IPC: 0000.307
542000000: Event_62: system.cpu progress event, total committed:125774, progress insts committed: 296, IPC: 0000.296
543000000: Event_62: system.cpu progress event, total committed:126051, progress insts committed: 277, IPC: 0000.277
544000000: Event_62: system.cpu progress event, total committed:126359, progress insts committed: 308, IPC: 0000.308
545000000: Event_62: system.cpu progress event, total committed:126655, progress insts committed: 296, IPC: 0000.296
546000000: Event_62: system.cpu progress event, total committed:126959, progress insts committed: 304, IPC: 0000.304
547000000: Event_62: system.cpu progress event, total committed:127257, progress insts committed: 298, IPC: 0000.298
548000000: Event_62: system.cpu progress event, total committed:127562, progress insts committed: 305, IPC: 0000.305
549000000: Event_62: system.cpu progress event, total committed:127859, progress insts committed: 297, IPC: 0000.297
550000000: Event_62: system.cpu progress event, total committed:128163, progress insts committed: 304, IPC: 0000.304
551000000: Event_62: system.cpu progress event, total committed:128465, progress insts committed: 302, IPC: 0000.302
552000000: Event_62: system.cpu progress event, total committed:128764, progress insts committed: 299, IPC: 0000.299
553000000: Event_62: system.cpu progress event, total committed:129073, progress insts committed: 309, IPC: 0000.309
554000000: Event_62: system.cpu progress event, total committed:129369, progress insts committed: 296, IPC: 0000.296
555000000: Event_62: system.cpu progress event, total committed:129661, progress insts committed: 292, IPC: 0000.292
556000000: Event_62: system.cpu progress event, total committed:129937, progress insts committed: 276, IPC: 0000.276
557000000: Event_62: system.cpu progress event, total committed:130236, progress insts committed: 299, IPC: 0000.299
558000000: Event_62: system.cpu progress event, total committed:130532, progress insts committed: 296, IPC: 0000.296
559000000: Event_62: system.cpu progress event, total committed:130832, progress insts committed: 300, IPC: 000000.3
560000000: Event_62: system.cpu progress event, total committed:131128, progress insts committed: 296, IPC: 0000.296
561000000: Event_62: system.cpu progress event, total committed:131424, progress insts committed: 296, IPC: 0000.296
562000000: Event_62: system.cpu progress event, total committed:131732, progress insts committed: 308, IPC: 0000.308
563000000: Event_62: system.cpu progress event, total committed:132024, progress insts committed: 292, IPC: 0000.292
564000000: Event_62: system.cpu progress event, total committed:132328, progress insts committed: 304, IPC: 0000.304
565000000: Event_62: system.cpu progress event, total committed:132621, progress insts committed: 293, IPC: 0000.293
566000000: Event_62: system.cpu progress event, total committed:132926, progress insts committed: 305, IPC: 0000.305
567000000: Event_62: system.cpu progress event, total committed:133223, progress insts committed: 297, IPC: 0000.297
568000000: Event_62: system.cpu progress event, total committed:133523, progress insts committed: 300, IPC: 000000.3
569000000: Event_62: system.cpu progress event, total committed:133800, progress insts committed: 277, IPC: 0000.277
570000000: Event_62: system.cpu progress event, total committed:134096, progress insts committed: 296, IPC: 0000.296
571000000: Event_62: system.cpu progress event, total committed:134402, progress insts committed: 306, IPC: 0000.306
572000000: Event_62: system.cpu progress event, total committed:134693, progress insts committed: 291, IPC: 0000.291
573000000: Event_62: system.cpu progress event, total committed:134998, progress insts committed: 305, IPC: 0000.305
574000000: Event_62: system.cpu progress event, total committed:135282, progress insts committed: 284, IPC: 0000.284
575000000: Event_62: system.cpu progress event, total committed:135587, progress insts committed: 305, IPC: 0000.305
576000000: Event_62: system.cpu progress event, total committed:135887, progress insts committed: 300, IPC: 000000.3
577000000: Event_62: system.cpu progress event, total committed:136188, progress insts committed: 301, IPC: 0000.301
578000000: Event_62: system.cpu progress event, total committed:136494, progress insts committed: 306, IPC: 0000.306
579000000: Event_62: system.cpu progress event, total committed:136792, progress insts committed: 298, IPC: 0000.298
580000000: Event_62: system.cpu progress event, total committed:137090, progress insts committed: 298, IPC: 0000.298
581000000: Event_62: system.cpu progress event, total committed:137386, progress insts committed: 296, IPC: 0000.296
582000000: Event_62: system.cpu progress event, total committed:137689, progress insts committed: 303, IPC: 0000.303
583000000: Event_62: system.cpu progress event, total committed:137988, progress insts committed: 299, IPC: 0000.299
584000000: Event_62: system.cpu progress event, total committed:138294, progress insts committed: 306, IPC: 0000.306
585000000: Event_62: system.cpu progress event, total committed:138590, progress insts committed: 296, IPC: 0000.296
586000000: Event_62: system.cpu progress event, total committed:138893, progress insts committed: 303, IPC: 0000.303
587000000: Event_62: system.cpu progress event, total committed:139198, progress insts committed: 305, IPC: 0000.305
588000000: Event_62: system.cpu progress event, total committed:139497, progress insts committed: 299, IPC: 0000.299
589000000: Event_62: system.cpu progress event, total committed:139803, progress insts committed: 306, IPC: 0000.306
590000000: Event_62: system.cpu progress event, total committed:140099, progress insts committed: 296, IPC: 0000.296
591000000: Event_62: system.cpu progress event, total committed:140403, progress insts committed: 304, IPC: 0000.304
592000000: Event_62: system.cpu progress event, total committed:140657, progress insts committed: 254, IPC: 0000.254
593000000: Event_62: system.cpu progress event, total committed:140932, progress insts committed: 275, IPC: 0000.275
594000000: Event_62: system.cpu progress event, total committed:141212, progress insts committed: 280, IPC: 00000.28
595000000: Event_62: system.cpu progress event, total committed:141510, progress insts committed: 298, IPC: 0000.298
596000000: Event_62: system.cpu progress event, total committed:141814, progress insts committed: 304, IPC: 0000.304
597000000: Event_62: system.cpu progress event, total committed:142110, progress insts committed: 296, IPC: 0000.296
598000000: Event_62: system.cpu progress event, total committed:142417, progress insts committed: 307, IPC: 0000.307
599000000: Event_62: system.cpu progress event, total committed:142714, progress insts committed: 297, IPC: 0000.297
600000000: Event_62: system.cpu progress event, total committed:143019, progress insts committed: 305, IPC: 0000.305
601000000: Event_62: system.cpu progress event, total committed:143319, progress insts committed: 300, IPC: 000000.3
602000000: Event_62: system.cpu progress event, total committed:143619, progress insts committed: 300, IPC: 000000.3
603000000: Event_62: system.cpu progress event, total committed:143919, progress insts committed: 300, IPC: 000000.3
604000000: Event_62: system.cpu progress event, total committed:144217, progress insts committed: 298, IPC: 0000.298
605000000: Event_62: system.cpu progress event, total committed:144523, progress insts committed: 306, IPC: 0000.306
606000000: Event_62: system.cpu progress event, total committed:144819, progress insts committed: 296, IPC: 0000.296
607000000: Event_62: system.cpu progress event, total committed:145124, progress insts committed: 305, IPC: 0000.305
608000000: Event_62: system.cpu progress event, total committed:145421, progress insts committed: 297, IPC: 0000.297
609000000: Event_62: system.cpu progress event, total committed:145727, progress insts committed: 306, IPC: 0000.306
610000000: Event_62: system.cpu progress event, total committed:146024, progress insts committed: 297, IPC: 0000.297
611000000: Event_62: system.cpu progress event, total committed:146314, progress insts committed: 290, IPC: 00000.29
612000000: Event_62: system.cpu progress event, total committed:146484, progress insts committed: 170, IPC: 00000.17
613000000: Event_62: system.cpu progress event, total committed:146775, progress insts committed: 291, IPC: 0000.291
614000000: Event_62: system.cpu progress event, total committed:147080, progress insts committed: 305, IPC: 0000.305
615000000: Event_62: system.cpu progress event, total committed:147376, progress insts committed: 296, IPC: 0000.296
616000000: Event_62: system.cpu progress event, total committed:147681, progress insts committed: 305, IPC: 0000.305
617000000: Event_62: system.cpu progress event, total committed:147984, progress insts committed: 303, IPC: 0000.303
618000000: Event_62: system.cpu progress event, total committed:148284, progress insts committed: 300, IPC: 000000.3
619000000: Event_62: system.cpu progress event, total committed:148563, progress insts committed: 279, IPC: 0000.279
620000000: Event_62: system.cpu progress event, total committed:148859, progress insts committed: 296, IPC: 0000.296
621000000: Event_62: system.cpu progress event, total committed:149164, progress insts committed: 305, IPC: 0000.305
622000000: Event_62: system.cpu progress event, total committed:149462, progress insts committed: 298, IPC: 0000.298
623000000: Event_62: system.cpu progress event, total committed:149767, progress insts committed: 305, IPC: 0000.305
624000000: Event_62: system.cpu progress event, total committed:150065, progress insts committed: 298, IPC: 0000.298
625000000: Event_62: system.cpu progress event, total committed:150368, progress insts committed: 303, IPC: 0000.303
626000000: Event_62: system.cpu progress event, total committed:150673, progress insts committed: 305, IPC: 0000.305
627000000: Event_62: system.cpu progress event, total committed:150974, progress insts committed: 301, IPC: 0000.301
628000000: Event_62: system.cpu progress event, total committed:151277, progress insts committed: 303, IPC: 0000.303
629000000: Event_62: system.cpu progress event, total committed:151559, progress insts committed: 282, IPC: 0000.282
630000000: Event_62: system.cpu progress event, total committed:151866, progress insts committed: 307, IPC: 0000.307
631000000: Event_62: system.cpu progress event, total committed:152162, progress insts committed: 296, IPC: 0000.296
632000000: Event_62: system.cpu progress event, total committed:152467, progress insts committed: 305, IPC: 0000.305
633000000: Event_62: system.cpu progress event, total committed:152767, progress insts committed: 300, IPC: 000000.3
634000000: Event_62: system.cpu progress event, total committed:153068, progress insts committed: 301, IPC: 0000.301
635000000: Event_62: system.cpu progress event, total committed:153375, progress insts committed: 307, IPC: 0000.307
636000000: Event_62: system.cpu progress event, total committed:153672, progress insts committed: 297, IPC: 0000.297
637000000: Event_62: system.cpu progress event, total committed:153971, progress insts committed: 299, IPC: 0000.299
638000000: Event_62: system.cpu progress event, total committed:154260, progress insts committed: 289, IPC: 0000.289
639000000: Event_62: system.cpu progress event, total committed:154565, progress insts committed: 305, IPC: 0000.305
640000000: Event_62: system.cpu progress event, total committed:154856, progress insts committed: 291, IPC: 0000.291
641000000: Event_62: system.cpu progress event, total committed:155160, progress insts committed: 304, IPC: 0000.304
642000000: Event_62: system.cpu progress event, total committed:155463, progress insts committed: 303, IPC: 0000.303
643000000: Event_62: system.cpu progress event, total committed:155762, progress insts committed: 299, IPC: 0000.299
644000000: Event_62: system.cpu progress event, total committed:156043, progress insts committed: 281, IPC: 0000.281
645000000: Event_62: system.cpu progress event, total committed:156339, progress insts committed: 296, IPC: 0000.296
646000000: Event_62: system.cpu progress event, total committed:156644, progress insts committed: 305, IPC: 0000.305
647000000: Event_62: system.cpu progress event, total committed:156928, progress insts committed: 284, IPC: 0000.284
648000000: Event_62: system.cpu progress event, total committed:157234, progress insts committed: 306, IPC: 0000.306
649000000: Event_62: system.cpu progress event, total committed:157533, progress insts committed: 299, IPC: 0000.299
650000000: Event_62: system.cpu progress event, total committed:157834, progress insts committed: 301, IPC: 0000.301
651000000: Event_62: system.cpu progress event, total committed:158140, progress insts committed: 306, IPC: 0000.306
652000000: Event_62: system.cpu progress event, total committed:158439, progress insts committed: 299, IPC: 0000.299
653000000: Event_62: system.cpu progress event, total committed:158743, progress insts committed: 304, IPC: 0000.304
654000000: Event_62: system.cpu progress event, total committed:159038, progress insts committed: 295, IPC: 0000.295
655000000: Event_62: system.cpu progress event, total committed:159345, progress insts committed: 307, IPC: 0000.307
656000000: Event_62: system.cpu progress event, total committed:159643, progress insts committed: 298, IPC: 0000.298
657000000: Event_62: system.cpu progress event, total committed:159947, progress insts committed: 304, IPC: 0000.304
658000000: Event_62: system.cpu progress event, total committed:160246, progress insts committed: 299, IPC: 0000.299
659000000: Event_62: system.cpu progress event, total committed:160548, progress insts committed: 302, IPC: 0000.302
660000000: Event_62: system.cpu progress event, total committed:160853, progress insts committed: 305, IPC: 0000.305
661000000: Event_62: system.cpu progress event, total committed:161152, progress insts committed: 299, IPC: 0000.299
662000000: Event_62: system.cpu progress event, total committed:161456, progress insts committed: 304, IPC: 0000.304
663000000: Event_62: system.cpu progress event, total committed:161751, progress insts committed: 295, IPC: 0000.295
664000000: Event_62: system.cpu progress event, total committed:162059, progress insts committed: 308, IPC: 0000.308
665000000: Event_62: system.cpu progress event, total committed:162341, progress insts committed: 282, IPC: 0000.282
666000000: Event_62: system.cpu progress event, total committed:162646, progress insts committed: 305, IPC: 0000.305
667000000: Event_62: system.cpu progress event, total committed:162939, progress insts committed: 293, IPC: 0000.293
668000000: Event_62: system.cpu progress event, total committed:163242, progress insts committed: 303, IPC: 0000.303
669000000: Event_62: system.cpu progress event, total committed:163522, progress insts committed: 280, IPC: 00000.28
670000000: Event_62: system.cpu progress event, total committed:163819, progress insts committed: 297, IPC: 0000.297
671000000: Event_62: system.cpu progress event, total committed:164123, progress insts committed: 304, IPC: 0000.304
672000000: Event_62: system.cpu progress event, total committed:164421, progress insts committed: 298, IPC: 0000.298
673000000: Event_62: system.cpu progress event, total committed:164726, progress insts committed: 305, IPC: 0000.305
674000000: Event_62: system.cpu progress event, total committed:165022, progress insts committed: 296, IPC: 0000.296
675000000: Event_62: system.cpu progress event, total committed:165327, progress insts committed: 305, IPC: 0000.305
676000000: Event_62: system.cpu progress event, total committed:165629, progress insts committed: 302, IPC: 0000.302
[...]
34359000000: Event_62: system.cpu progress event, total committed:9951816, progress insts committed: 227, IPC: 0000.227
34360000000: Event_62: system.cpu progress event, total committed:9952070, progress insts committed: 254, IPC: 0000.254
34361000000: Event_62: system.cpu progress event, total committed:9952367, progress insts committed: 297, IPC: 0000.297
34362000000: Event_62: system.cpu progress event, total committed:9952657, progress insts committed: 290, IPC: 00000.29
34363000000: Event_62: system.cpu progress event, total committed:9952953, progress insts committed: 296, IPC: 0000.296
34364000000: Event_62: system.cpu progress event, total committed:9953244, progress insts committed: 291, IPC: 0000.291
34365000000: Event_62: system.cpu progress event, total committed:9953549, progress insts committed: 305, IPC: 0000.305
34366000000: Event_62: system.cpu progress event, total committed:9953845, progress insts committed: 296, IPC: 0000.296
34367000000: Event_62: system.cpu progress event, total committed:9954141, progress insts committed: 296, IPC: 0000.296
34368000000: Event_62: system.cpu progress event, total committed:9954441, progress insts committed: 300, IPC: 000000.3
34369000000: Event_62: system.cpu progress event, total committed:9954733, progress insts committed: 292, IPC: 0000.292
34370000000: Event_62: system.cpu progress event, total committed:9955033, progress insts committed: 300, IPC: 000000.3
34371000000: Event_62: system.cpu progress event, total committed:9955333, progress insts committed: 300, IPC: 000000.3
34372000000: Event_62: system.cpu progress event, total committed:9955623, progress insts committed: 290, IPC: 00000.29
34373000000: Event_62: system.cpu progress event, total committed:9955913, progress insts committed: 290, IPC: 00000.29
34374000000: Event_62: system.cpu progress event, total committed:9956213, progress insts committed: 300, IPC: 000000.3
34375000000: Event_62: system.cpu progress event, total committed:9956514, progress insts committed: 301, IPC: 0000.301
34376000000: Event_62: system.cpu progress event, total committed:9956818, progress insts committed: 304, IPC: 0000.304
34377000000: Event_62: system.cpu progress event, total committed:9957122, progress insts committed: 304, IPC: 0000.304
34378000000: Event_62: system.cpu progress event, total committed:9957414, progress insts committed: 292, IPC: 0000.292
34379000000: Event_62: system.cpu progress event, total committed:9957707, progress insts committed: 293, IPC: 0000.293
34380000000: Event_62: system.cpu progress event, total committed:9957998, progress insts committed: 291, IPC: 0000.291
34381000000: Event_62: system.cpu progress event, total committed:9958294, progress insts committed: 296, IPC: 0000.296
34382000000: Event_62: system.cpu progress event, total committed:9958586, progress insts committed: 292, IPC: 0000.292
34383000000: Event_62: system.cpu progress event, total committed:9958874, progress insts committed: 288, IPC: 0000.288
34384000000: Event_62: system.cpu progress event, total committed:9959166, progress insts committed: 292, IPC: 0000.292
34385000000: Event_62: system.cpu progress event, total committed:9959461, progress insts committed: 295, IPC: 0000.295
34386000000: Event_62: system.cpu progress event, total committed:9959754, progress insts committed: 293, IPC: 0000.293
34387000000: Event_62: system.cpu progress event, total committed:9960025, progress insts committed: 271, IPC: 0000.271
34388000000: Event_62: system.cpu progress event, total committed:9960307, progress insts committed: 282, IPC: 0000.282
34389000000: Event_62: system.cpu progress event, total committed:9960591, progress insts committed: 284, IPC: 0000.284
34390000000: Event_62: system.cpu progress event, total committed:9960883, progress insts committed: 292, IPC: 0000.292
34391000000: Event_62: system.cpu progress event, total committed:9961173, progress insts committed: 290, IPC: 00000.29
34392000000: Event_62: system.cpu progress event, total committed:9961465, progress insts committed: 292, IPC: 0000.292
34393000000: Event_62: system.cpu progress event, total committed:9961761, progress insts committed: 296, IPC: 0000.296
34394000000: Event_62: system.cpu progress event, total committed:9962054, progress insts committed: 293, IPC: 0000.293
34395000000: Event_62: system.cpu progress event, total committed:9962350, progress insts committed: 296, IPC: 0000.296
34396000000: Event_62: system.cpu progress event, total committed:9962641, progress insts committed: 291, IPC: 0000.291
34397000000: Event_62: system.cpu progress event, total committed:9962934, progress insts committed: 293, IPC: 0000.293
34398000000: Event_62: system.cpu progress event, total committed:9963233, progress insts committed: 299, IPC: 0000.299
34399000000: Event_62: system.cpu progress event, total committed:9963524, progress insts committed: 291, IPC: 0000.291
34400000000: Event_62: system.cpu progress event, total committed:9963814, progress insts committed: 290, IPC: 00000.29
34401000000: Event_62: system.cpu progress event, total committed:9964110, progress insts committed: 296, IPC: 0000.296
34402000000: Event_62: system.cpu progress event, total committed:9964401, progress insts committed: 291, IPC: 0000.291
34403000000: Event_62: system.cpu progress event, total committed:9964697, progress insts committed: 296, IPC: 0000.296
34404000000: Event_62: system.cpu progress event, total committed:9964985, progress insts committed: 288, IPC: 0000.288
34405000000: Event_62: system.cpu progress event, total committed:9965281, progress insts committed: 296, IPC: 0000.296
34406000000: Event_62: system.cpu progress event, total committed:9965573, progress insts committed: 292, IPC: 0000.292
34407000000: Event_62: system.cpu progress event, total committed:9965873, progress insts committed: 300, IPC: 000000.3
34408000000: Event_62: system.cpu progress event, total committed:9966164, progress insts committed: 291, IPC: 0000.291
34409000000: Event_62: system.cpu progress event, total committed:9966465, progress insts committed: 301, IPC: 0000.301
34410000000: Event_62: system.cpu progress event, total committed:9966757, progress insts committed: 292, IPC: 0000.292
34411000000: Event_62: system.cpu progress event, total committed:9967048, progress insts committed: 291, IPC: 0000.291
34412000000: Event_62: system.cpu progress event, total committed:9967340, progress insts committed: 292, IPC: 0000.292
34413000000: Event_62: system.cpu progress event, total committed:9967636, progress insts committed: 296, IPC: 0000.296
34414000000: Event_62: system.cpu progress event, total committed:9967928, progress insts committed: 292, IPC: 0000.292
34415000000: Event_62: system.cpu progress event, total committed:9968216, progress insts committed: 288, IPC: 0000.288
34416000000: Event_62: system.cpu progress event, total committed:9968512, progress insts committed: 296, IPC: 0000.296
34417000000: Event_62: system.cpu progress event, total committed:9968804, progress insts committed: 292, IPC: 0000.292
34418000000: Event_62: system.cpu progress event, total committed:9969100, progress insts committed: 296, IPC: 0000.296
34419000000: Event_62: system.cpu progress event, total committed:9969391, progress insts committed: 291, IPC: 0000.291
34420000000: Event_62: system.cpu progress event, total committed:9969682, progress insts committed: 291, IPC: 0000.291
34421000000: Event_62: system.cpu progress event, total committed:9969972, progress insts committed: 290, IPC: 00000.29
34422000000: Event_62: system.cpu progress event, total committed:9970268, progress insts committed: 296, IPC: 0000.296
34423000000: Event_62: system.cpu progress event, total committed:9970534, progress insts committed: 266, IPC: 0000.266
34424000000: Event_62: system.cpu progress event, total committed:9970804, progress insts committed: 270, IPC: 00000.27
34425000000: Event_62: system.cpu progress event, total committed:9971104, progress insts committed: 300, IPC: 000000.3
34426000000: Event_62: system.cpu progress event, total committed:9971390, progress insts committed: 286, IPC: 0000.286
34427000000: Event_62: system.cpu progress event, total committed:9971679, progress insts committed: 289, IPC: 0000.289
34428000000: Event_62: system.cpu progress event, total committed:9971975, progress insts committed: 296, IPC: 0000.296
34429000000: Event_62: system.cpu progress event, total committed:9972266, progress insts committed: 291, IPC: 0000.291
34430000000: Event_62: system.cpu progress event, total committed:9972558, progress insts committed: 292, IPC: 0000.292
34431000000: Event_62: system.cpu progress event, total committed:9972854, progress insts committed: 296, IPC: 0000.296
34432000000: Event_62: system.cpu progress event, total committed:9973147, progress insts committed: 293, IPC: 0000.293
34433000000: Event_62: system.cpu progress event, total committed:9973445, progress insts committed: 298, IPC: 0000.298
34434000000: Event_62: system.cpu progress event, total committed:9973727, progress insts committed: 282, IPC: 0000.282
34435000000: Event_62: system.cpu progress event, total committed:9974019, progress insts committed: 292, IPC: 0000.292
34436000000: Event_62: system.cpu progress event, total committed:9974310, progress insts committed: 291, IPC: 0000.291
34437000000: Event_62: system.cpu progress event, total committed:9974603, progress insts committed: 293, IPC: 0000.293
34438000000: Event_62: system.cpu progress event, total committed:9974878, progress insts committed: 275, IPC: 0000.275
34439000000: Event_62: system.cpu progress event, total committed:9975172, progress insts committed: 294, IPC: 0000.294
34440000000: Event_62: system.cpu progress event, total committed:9975468, progress insts committed: 296, IPC: 0000.296
34441000000: Event_62: system.cpu progress event, total committed:9975764, progress insts committed: 296, IPC: 0000.296
34442000000: Event_62: system.cpu progress event, total committed:9976048, progress insts committed: 284, IPC: 0000.284
34443000000: Event_62: system.cpu progress event, total committed:9976329, progress insts committed: 281, IPC: 0000.281
34444000000: Event_62: system.cpu progress event, total committed:9976615, progress insts committed: 286, IPC: 0000.286
34445000000: Event_62: system.cpu progress event, total committed:9976913, progress insts committed: 298, IPC: 0000.298
34446000000: Event_62: system.cpu progress event, total committed:9977204, progress insts committed: 291, IPC: 0000.291
34447000000: Event_62: system.cpu progress event, total committed:9977495, progress insts committed: 291, IPC: 0000.291
34448000000: Event_62: system.cpu progress event, total committed:9977791, progress insts committed: 296, IPC: 0000.296
34449000000: Event_62: system.cpu progress event, total committed:9978083, progress insts committed: 292, IPC: 0000.292
34450000000: Event_62: system.cpu progress event, total committed:9978376, progress insts committed: 293, IPC: 0000.293
34451000000: Event_62: system.cpu progress event, total committed:9978667, progress insts committed: 291, IPC: 0000.291
34452000000: Event_62: system.cpu progress event, total committed:9978963, progress insts committed: 296, IPC: 0000.296
34453000000: Event_62: system.cpu progress event, total committed:9979255, progress insts committed: 292, IPC: 0000.292
34454000000: Event_62: system.cpu progress event, total committed:9979551, progress insts committed: 296, IPC: 0000.296
34455000000: Event_62: system.cpu progress event, total committed:9979846, progress insts committed: 295, IPC: 0000.295
34456000000: Event_62: system.cpu progress event, total committed:9980142, progress insts committed: 296, IPC: 0000.296
34457000000: Event_62: system.cpu progress event, total committed:9980438, progress insts committed: 296, IPC: 0000.296
34458000000: Event_62: system.cpu progress event, total committed:9980734, progress insts committed: 296, IPC: 0000.296
34459000000: Event_62: system.cpu progress event, total committed:9981030, progress insts committed: 296, IPC: 0000.296
34460000000: Event_62: system.cpu progress event, total committed:9981321, progress insts committed: 291, IPC: 0000.291
34461000000: Event_62: system.cpu progress event, total committed:9981617, progress insts committed: 296, IPC: 0000.296
34462000000: Event_62: system.cpu progress event, total committed:9981907, progress insts committed: 290, IPC: 00000.29
34463000000: Event_62: system.cpu progress event, total committed:9982171, progress insts committed: 264, IPC: 0000.264
34464000000: Event_62: system.cpu progress event, total committed:9982462, progress insts committed: 291, IPC: 0000.291
34465000000: Event_62: system.cpu progress event, total committed:9982754, progress insts committed: 292, IPC: 0000.292
34466000000: Event_62: system.cpu progress event, total committed:9983047, progress insts committed: 293, IPC: 0000.293
34467000000: Event_62: system.cpu progress event, total committed:9983339, progress insts committed: 292, IPC: 0000.292
34468000000: Event_62: system.cpu progress event, total committed:9983627, progress insts committed: 288, IPC: 0000.288
34469000000: Event_62: system.cpu progress event, total committed:9983923, progress insts committed: 296, IPC: 0000.296
34470000000: Event_62: system.cpu progress event, total committed:9984213, progress insts committed: 290, IPC: 00000.29
34471000000: Event_62: system.cpu progress event, total committed:9984509, progress insts committed: 296, IPC: 0000.296
34472000000: Event_62: system.cpu progress event, total committed:9984801, progress insts committed: 292, IPC: 0000.292
34473000000: Event_62: system.cpu progress event, total committed:9985096, progress insts committed: 295, IPC: 0000.295
34474000000: Event_62: system.cpu progress event, total committed:9985378, progress insts committed: 282, IPC: 0000.282
34475000000: Event_62: system.cpu progress event, total committed:9985674, progress insts committed: 296, IPC: 0000.296
34476000000: Event_62: system.cpu progress event, total committed:9985964, progress insts committed: 290, IPC: 00000.29
34477000000: Event_62: system.cpu progress event, total committed:9986262, progress insts committed: 298, IPC: 0000.298
34478000000: Event_62: system.cpu progress event, total committed:9986554, progress insts committed: 292, IPC: 0000.292
34479000000: Event_62: system.cpu progress event, total committed:9986847, progress insts committed: 293, IPC: 0000.293
34480000000: Event_62: system.cpu progress event, total committed:9987142, progress insts committed: 295, IPC: 0000.295
34481000000: Event_62: system.cpu progress event, total committed:9987433, progress insts committed: 291, IPC: 0000.291
34482000000: Event_62: system.cpu progress event, total committed:9987725, progress insts committed: 292, IPC: 0000.292
34483000000: Event_62: system.cpu progress event, total committed:9988021, progress insts committed: 296, IPC: 0000.296
34484000000: Event_62: system.cpu progress event, total committed:9988313, progress insts committed: 292, IPC: 0000.292
34485000000: Event_62: system.cpu progress event, total committed:9988610, progress insts committed: 297, IPC: 0000.297
34486000000: Event_62: system.cpu progress event, total committed:9988897, progress insts committed: 287, IPC: 0000.287
34487000000: Event_62: system.cpu progress event, total committed:9989193, progress insts committed: 296, IPC: 0000.296
34488000000: Event_62: system.cpu progress event, total committed:9989485, progress insts committed: 292, IPC: 0000.292
34489000000: Event_62: system.cpu progress event, total committed:9989780, progress insts committed: 295, IPC: 0000.295
34490000000: Event_62: system.cpu progress event, total committed:9990075, progress insts committed: 295, IPC: 0000.295
34491000000: Event_62: system.cpu progress event, total committed:9990365, progress insts committed: 290, IPC: 00000.29
34492000000: Event_62: system.cpu progress event, total committed:9990661, progress insts committed: 296, IPC: 0000.296
34493000000: Event_62: system.cpu progress event, total committed:9990953, progress insts committed: 292, IPC: 0000.292
34494000000: Event_62: system.cpu progress event, total committed:9991220, progress insts committed: 267, IPC: 0000.267
34495000000: Event_62: system.cpu progress event, total committed:9991510, progress insts committed: 290, IPC: 00000.29
34496000000: Event_62: system.cpu progress event, total committed:9991808, progress insts committed: 298, IPC: 0000.298
34497000000: Event_62: system.cpu progress event, total committed:9992103, progress insts committed: 295, IPC: 0000.295
34498000000: Event_62: system.cpu progress event, total committed:9992387, progress insts committed: 284, IPC: 0000.284
34499000000: Event_62: system.cpu progress event, total committed:9992676, progress insts committed: 289, IPC: 0000.289
34500000000: Event_62: system.cpu progress event, total committed:9992971, progress insts committed: 295, IPC: 0000.295
34501000000: Event_62: system.cpu progress event, total committed:9993261, progress insts committed: 290, IPC: 00000.29
34502000000: Event_62: system.cpu progress event, total committed:9993538, progress insts committed: 277, IPC: 0000.277
34503000000: Event_62: system.cpu progress event, total committed:9993830, progress insts committed: 292, IPC: 0000.292
34504000000: Event_62: system.cpu progress event, total committed:9994118, progress insts committed: 288, IPC: 0000.288
34505000000: Event_62: system.cpu progress event, total committed:9994414, progress insts committed: 296, IPC: 0000.296
34506000000: Event_62: system.cpu progress event, total committed:9994706, progress insts committed: 292, IPC: 0000.292
34507000000: Event_62: system.cpu progress event, total committed:9995001, progress insts committed: 295, IPC: 0000.295
34508000000: Event_62: system.cpu progress event, total committed:9995292, progress insts committed: 291, IPC: 0000.291
34509000000: Event_62: system.cpu progress event, total committed:9995584, progress insts committed: 292, IPC: 0000.292
34510000000: Event_62: system.cpu progress event, total committed:9995882, progress insts committed: 298, IPC: 0000.298
34511000000: Event_62: system.cpu progress event, total committed:9996186, progress insts committed: 304, IPC: 0000.304
34512000000: Event_62: system.cpu progress event, total committed:9996490, progress insts committed: 304, IPC: 0000.304
34513000000: Event_62: system.cpu progress event, total committed:9996796, progress insts committed: 306, IPC: 0000.306
34514000000: Event_62: system.cpu progress event, total committed:9997100, progress insts committed: 304, IPC: 0000.304
34515000000: Event_62: system.cpu progress event, total committed:9997392, progress insts committed: 292, IPC: 0000.292
34516000000: Event_62: system.cpu progress event, total committed:9997664, progress insts committed: 272, IPC: 0000.272
34517000000: Event_62: system.cpu progress event, total committed:9997950, progress insts committed: 286, IPC: 0000.286
34518000000: Event_62: system.cpu progress event, total committed:9998246, progress insts committed: 296, IPC: 0000.296
34519000000: Event_62: system.cpu progress event, total committed:9998534, progress insts committed: 288, IPC: 0000.288
34520000000: Event_62: system.cpu progress event, total committed:9998818, progress insts committed: 284, IPC: 0000.284
34521000000: Event_62: system.cpu progress event, total committed:9999100, progress insts committed: 282, IPC: 0000.282
34522000000: Event_62: system.cpu progress event, total committed:9999392, progress insts committed: 292, IPC: 0000.292
34523000000: Event_62: system.cpu progress event, total committed:9999688, progress insts committed: 296, IPC: 0000.296
34524000000: Event_62: system.cpu progress event, total committed:9999980, progress insts committed: 292, IPC: 0000.292
Exiting @ tick 34524156000 because a thread reached the max instruction count
