[pipeline] started: 2026-02-10T22:50:58+01:00
[pipeline] OUT_BASE=/home/xfalc/arq/TP4_EX4/m5out/q5/A15_nolimit_20260210
[pipeline] running sweep (MAXINSTS=0)...
[Q5][A15] gem5: /opt/gem5/build/RISCV/gem5.opt
[Q5][A15] cfg : /home/xfalc/arq/TP4_EX4/gem5/se_A15_q5.py
[Q5][A15] out : /home/xfalc/arq/TP4_EX4/m5out/q5/A15_nolimit_20260210
[Q5][A15] maxinsts: 0
[Q5][A15] progress: 10
[Q5][A15] skip_done: 0
[Q5][A15] sizes: 2kB 4kB 8kB 16kB 32kB
[Q5][A15] calibrate: 0
\n=== L1=2kB ===
[run ] 22:50:58 outdir=/home/xfalc/arq/TP4_EX4/m5out/q5/A15_nolimit_20260210/L1_2kB/dijkstra
Global frequency set at 1000000000000 ticks per second
src/mem/dram_interface.cc:690: warn: DRAM device capacity (8192 Mbytes) does not match the address range assigned (2048 Mbytes)
src/base/statistics.hh:279: warn: One of the stats is a legacy stat. Legacy stat is a stat that does not belong to any statistics::Group. Legacy stat is deprecated.
system.remote_gdb: Listening for connections on port 7000
Redirecting stdout and stderr to /home/xfalc/arq/TP4_EX4/m5out/q5/A15_nolimit_20260210/L1_2kB/dijkstra/simout
gem5 Simulator System.  https://www.gem5.org
gem5 is copyrighted software; use the --copyright option for details.

gem5 version 23.0.0.1
gem5 compiled Jan 26 2026 00:01:36
gem5 started Feb 10 2026 22:50:58
gem5 executing on notebook, pid 109513
command line: /opt/gem5/build/RISCV/gem5.opt -r -d /home/xfalc/arq/TP4_EX4/m5out/q5/A15_nolimit_20260210/L1_2kB/dijkstra /home/xfalc/arq/TP4_EX4/gem5/se_A15_q5.py --l1 2kB --maxinsts 0 --progress 10 --cmd /home/xfalc/arq/TP4_EX4/bench/bin/dijkstra_small --options /home/xfalc/arq/TP4_EX4/bench/mibench/network/dijkstra/input.dat

src/sim/simulate.cc:194: info: Entering event queue @ 0.  Starting simulation...
src/sim/syscall_emul.cc:85: warn: ignoring syscall set_robust_list(...)
      (further warnings will be suppressed)
src/sim/syscall_emul.hh:1014: warn: readlink() called on '/proc/self/exe' may yield unexpected results in various settings.
      Returning '/home/xfalc/arq/TP4_EX4/bench/bin/dijkstra_small'
src/sim/mem_state.cc:443: info: Increasing stack size by one page.
src/sim/syscall_emul.cc:74: warn: ignoring syscall mprotect(...)
Exiting @ tick 25323483600 because exiting with last active thread context
[done] 22:53:16 rc=0 elapsed=138s outdir=/home/xfalc/arq/TP4_EX4/m5out/q5/A15_nolimit_20260210/L1_2kB/dijkstra
[run ] 22:53:16 outdir=/home/xfalc/arq/TP4_EX4/m5out/q5/A15_nolimit_20260210/L1_2kB/blowfish_enc
Global frequency set at 1000000000000 ticks per second
src/mem/dram_interface.cc:690: warn: DRAM device capacity (8192 Mbytes) does not match the address range assigned (2048 Mbytes)
src/base/statistics.hh:279: warn: One of the stats is a legacy stat. Legacy stat is a stat that does not belong to any statistics::Group. Legacy stat is deprecated.
system.remote_gdb: Listening for connections on port 7000
Redirecting stdout and stderr to /home/xfalc/arq/TP4_EX4/m5out/q5/A15_nolimit_20260210/L1_2kB/blowfish_enc/simout
gem5 Simulator System.  https://www.gem5.org
gem5 is copyrighted software; use the --copyright option for details.

gem5 version 23.0.0.1
gem5 compiled Jan 26 2026 00:01:36
gem5 started Feb 10 2026 22:53:16
gem5 executing on notebook, pid 110140
command line: /opt/gem5/build/RISCV/gem5.opt -r -d /home/xfalc/arq/TP4_EX4/m5out/q5/A15_nolimit_20260210/L1_2kB/blowfish_enc /home/xfalc/arq/TP4_EX4/gem5/se_A15_q5.py --l1 2kB --maxinsts 0 --progress 10 --cmd /home/xfalc/arq/TP4_EX4/bench/bin/bf --options e /home/xfalc/arq/TP4_EX4/bench/mibench/security/blowfish/input_small.asc /home/xfalc/arq/TP4_EX4/m5out/q5/A15_nolimit_20260210/L1_2kB/blowfish_enc/output_small.enc 1234567890abcdeffedcba0987654321

src/sim/simulate.cc:194: info: Entering event queue @ 0.  Starting simulation...
src/sim/syscall_emul.cc:85: warn: ignoring syscall set_robust_list(...)
      (further warnings will be suppressed)
src/sim/syscall_emul.hh:1014: warn: readlink() called on '/proc/self/exe' may yield unexpected results in various settings.
      Returning '/home/xfalc/arq/TP4_EX4/bench/bin/bf'
src/sim/mem_state.cc:443: info: Increasing stack size by one page.
src/sim/syscall_emul.cc:74: warn: ignoring syscall mprotect(...)
src/sim/mem_state.cc:443: info: Increasing stack size by one page.
Exiting @ tick 19337031600 because exiting with last active thread context
[done] 22:55:43 rc=0 elapsed=147s outdir=/home/xfalc/arq/TP4_EX4/m5out/q5/A15_nolimit_20260210/L1_2kB/blowfish_enc
[run ] 22:55:43 outdir=/home/xfalc/arq/TP4_EX4/m5out/q5/A15_nolimit_20260210/L1_2kB/blowfish_dec
Global frequency set at 1000000000000 ticks per second
src/mem/dram_interface.cc:690: warn: DRAM device capacity (8192 Mbytes) does not match the address range assigned (2048 Mbytes)
src/base/statistics.hh:279: warn: One of the stats is a legacy stat. Legacy stat is a stat that does not belong to any statistics::Group. Legacy stat is deprecated.
system.remote_gdb: Listening for connections on port 7000
Redirecting stdout and stderr to /home/xfalc/arq/TP4_EX4/m5out/q5/A15_nolimit_20260210/L1_2kB/blowfish_dec/simout
gem5 Simulator System.  https://www.gem5.org
gem5 is copyrighted software; use the --copyright option for details.

gem5 version 23.0.0.1
gem5 compiled Jan 26 2026 00:01:36
gem5 started Feb 10 2026 22:55:43
gem5 executing on notebook, pid 110674
command line: /opt/gem5/build/RISCV/gem5.opt -r -d /home/xfalc/arq/TP4_EX4/m5out/q5/A15_nolimit_20260210/L1_2kB/blowfish_dec /home/xfalc/arq/TP4_EX4/gem5/se_A15_q5.py --l1 2kB --maxinsts 0 --progress 10 --cmd /home/xfalc/arq/TP4_EX4/bench/bin/bf --options d /home/xfalc/arq/TP4_EX4/m5out/q5/A15_nolimit_20260210/L1_2kB/blowfish_enc/output_small.enc /home/xfalc/arq/TP4_EX4/m5out/q5/A15_nolimit_20260210/L1_2kB/blowfish_dec/output_small.asc 1234567890abcdeffedcba0987654321

src/sim/simulate.cc:194: info: Entering event queue @ 0.  Starting simulation...
src/sim/syscall_emul.cc:85: warn: ignoring syscall set_robust_list(...)
      (further warnings will be suppressed)
src/sim/syscall_emul.hh:1014: warn: readlink() called on '/proc/self/exe' may yield unexpected results in various settings.
      Returning '/home/xfalc/arq/TP4_EX4/bench/bin/bf'
src/sim/mem_state.cc:443: info: Increasing stack size by one page.
src/sim/syscall_emul.cc:74: warn: ignoring syscall mprotect(...)
src/sim/mem_state.cc:443: info: Increasing stack size by one page.
Exiting @ tick 18942110400 because exiting with last active thread context
[done] 22:58:05 rc=0 elapsed=142s outdir=/home/xfalc/arq/TP4_EX4/m5out/q5/A15_nolimit_20260210/L1_2kB/blowfish_dec
\n=== L1=4kB ===
[run ] 22:58:05 outdir=/home/xfalc/arq/TP4_EX4/m5out/q5/A15_nolimit_20260210/L1_4kB/dijkstra
Global frequency set at 1000000000000 ticks per second
src/mem/dram_interface.cc:690: warn: DRAM device capacity (8192 Mbytes) does not match the address range assigned (2048 Mbytes)
src/base/statistics.hh:279: warn: One of the stats is a legacy stat. Legacy stat is a stat that does not belong to any statistics::Group. Legacy stat is deprecated.
system.remote_gdb: Listening for connections on port 7000
Redirecting stdout and stderr to /home/xfalc/arq/TP4_EX4/m5out/q5/A15_nolimit_20260210/L1_4kB/dijkstra/simout
gem5 Simulator System.  https://www.gem5.org
gem5 is copyrighted software; use the --copyright option for details.

gem5 version 23.0.0.1
gem5 compiled Jan 26 2026 00:01:36
gem5 started Feb 10 2026 22:58:06
gem5 executing on notebook, pid 111167
command line: /opt/gem5/build/RISCV/gem5.opt -r -d /home/xfalc/arq/TP4_EX4/m5out/q5/A15_nolimit_20260210/L1_4kB/dijkstra /home/xfalc/arq/TP4_EX4/gem5/se_A15_q5.py --l1 4kB --maxinsts 0 --progress 10 --cmd /home/xfalc/arq/TP4_EX4/bench/bin/dijkstra_small --options /home/xfalc/arq/TP4_EX4/bench/mibench/network/dijkstra/input.dat

src/sim/simulate.cc:194: info: Entering event queue @ 0.  Starting simulation...
src/sim/syscall_emul.cc:85: warn: ignoring syscall set_robust_list(...)
      (further warnings will be suppressed)
src/sim/syscall_emul.hh:1014: warn: readlink() called on '/proc/self/exe' may yield unexpected results in various settings.
      Returning '/home/xfalc/arq/TP4_EX4/bench/bin/dijkstra_small'
src/sim/mem_state.cc:443: info: Increasing stack size by one page.
src/sim/syscall_emul.cc:74: warn: ignoring syscall mprotect(...)
Exiting @ tick 20777752000 because exiting with last active thread context
[done] 23:00:06 rc=0 elapsed=121s outdir=/home/xfalc/arq/TP4_EX4/m5out/q5/A15_nolimit_20260210/L1_4kB/dijkstra
[run ] 23:00:06 outdir=/home/xfalc/arq/TP4_EX4/m5out/q5/A15_nolimit_20260210/L1_4kB/blowfish_enc
Global frequency set at 1000000000000 ticks per second
src/mem/dram_interface.cc:690: warn: DRAM device capacity (8192 Mbytes) does not match the address range assigned (2048 Mbytes)
src/base/statistics.hh:279: warn: One of the stats is a legacy stat. Legacy stat is a stat that does not belong to any statistics::Group. Legacy stat is deprecated.
system.remote_gdb: Listening for connections on port 7000
Redirecting stdout and stderr to /home/xfalc/arq/TP4_EX4/m5out/q5/A15_nolimit_20260210/L1_4kB/blowfish_enc/simout
gem5 Simulator System.  https://www.gem5.org
gem5 is copyrighted software; use the --copyright option for details.

gem5 version 23.0.0.1
gem5 compiled Jan 26 2026 00:01:36
gem5 started Feb 10 2026 23:00:07
gem5 executing on notebook, pid 111532
command line: /opt/gem5/build/RISCV/gem5.opt -r -d /home/xfalc/arq/TP4_EX4/m5out/q5/A15_nolimit_20260210/L1_4kB/blowfish_enc /home/xfalc/arq/TP4_EX4/gem5/se_A15_q5.py --l1 4kB --maxinsts 0 --progress 10 --cmd /home/xfalc/arq/TP4_EX4/bench/bin/bf --options e /home/xfalc/arq/TP4_EX4/bench/mibench/security/blowfish/input_small.asc /home/xfalc/arq/TP4_EX4/m5out/q5/A15_nolimit_20260210/L1_4kB/blowfish_enc/output_small.enc 1234567890abcdeffedcba0987654321

src/sim/simulate.cc:194: info: Entering event queue @ 0.  Starting simulation...
src/sim/syscall_emul.cc:85: warn: ignoring syscall set_robust_list(...)
      (further warnings will be suppressed)
src/sim/syscall_emul.hh:1014: warn: readlink() called on '/proc/self/exe' may yield unexpected results in various settings.
      Returning '/home/xfalc/arq/TP4_EX4/bench/bin/bf'
src/sim/mem_state.cc:443: info: Increasing stack size by one page.
src/sim/syscall_emul.cc:74: warn: ignoring syscall mprotect(...)
src/sim/mem_state.cc:443: info: Increasing stack size by one page.
Exiting @ tick 17954727200 because exiting with last active thread context
[done] 23:02:24 rc=0 elapsed=138s outdir=/home/xfalc/arq/TP4_EX4/m5out/q5/A15_nolimit_20260210/L1_4kB/blowfish_enc
[run ] 23:02:24 outdir=/home/xfalc/arq/TP4_EX4/m5out/q5/A15_nolimit_20260210/L1_4kB/blowfish_dec
Global frequency set at 1000000000000 ticks per second
src/mem/dram_interface.cc:690: warn: DRAM device capacity (8192 Mbytes) does not match the address range assigned (2048 Mbytes)
src/base/statistics.hh:279: warn: One of the stats is a legacy stat. Legacy stat is a stat that does not belong to any statistics::Group. Legacy stat is deprecated.
system.remote_gdb: Listening for connections on port 7000
Redirecting stdout and stderr to /home/xfalc/arq/TP4_EX4/m5out/q5/A15_nolimit_20260210/L1_4kB/blowfish_dec/simout
gem5 Simulator System.  https://www.gem5.org
gem5 is copyrighted software; use the --copyright option for details.

gem5 version 23.0.0.1
gem5 compiled Jan 26 2026 00:01:36
gem5 started Feb 10 2026 23:02:25
gem5 executing on notebook, pid 111844
command line: /opt/gem5/build/RISCV/gem5.opt -r -d /home/xfalc/arq/TP4_EX4/m5out/q5/A15_nolimit_20260210/L1_4kB/blowfish_dec /home/xfalc/arq/TP4_EX4/gem5/se_A15_q5.py --l1 4kB --maxinsts 0 --progress 10 --cmd /home/xfalc/arq/TP4_EX4/bench/bin/bf --options d /home/xfalc/arq/TP4_EX4/m5out/q5/A15_nolimit_20260210/L1_4kB/blowfish_enc/output_small.enc /home/xfalc/arq/TP4_EX4/m5out/q5/A15_nolimit_20260210/L1_4kB/blowfish_dec/output_small.asc 1234567890abcdeffedcba0987654321

src/sim/simulate.cc:194: info: Entering event queue @ 0.  Starting simulation...
src/sim/syscall_emul.cc:85: warn: ignoring syscall set_robust_list(...)
      (further warnings will be suppressed)
src/sim/syscall_emul.hh:1014: warn: readlink() called on '/proc/self/exe' may yield unexpected results in various settings.
      Returning '/home/xfalc/arq/TP4_EX4/bench/bin/bf'
src/sim/mem_state.cc:443: info: Increasing stack size by one page.
src/sim/syscall_emul.cc:74: warn: ignoring syscall mprotect(...)
src/sim/mem_state.cc:443: info: Increasing stack size by one page.
Exiting @ tick 17717118000 because exiting with last active thread context
[done] 23:04:40 rc=0 elapsed=136s outdir=/home/xfalc/arq/TP4_EX4/m5out/q5/A15_nolimit_20260210/L1_4kB/blowfish_dec
\n=== L1=8kB ===
[run ] 23:04:40 outdir=/home/xfalc/arq/TP4_EX4/m5out/q5/A15_nolimit_20260210/L1_8kB/dijkstra
Global frequency set at 1000000000000 ticks per second
src/mem/dram_interface.cc:690: warn: DRAM device capacity (8192 Mbytes) does not match the address range assigned (2048 Mbytes)
src/base/statistics.hh:279: warn: One of the stats is a legacy stat. Legacy stat is a stat that does not belong to any statistics::Group. Legacy stat is deprecated.
system.remote_gdb: Listening for connections on port 7000
Redirecting stdout and stderr to /home/xfalc/arq/TP4_EX4/m5out/q5/A15_nolimit_20260210/L1_8kB/dijkstra/simout
gem5 Simulator System.  https://www.gem5.org
gem5 is copyrighted software; use the --copyright option for details.

gem5 version 23.0.0.1
gem5 compiled Jan 26 2026 00:01:36
gem5 started Feb 10 2026 23:04:40
gem5 executing on notebook, pid 112157
command line: /opt/gem5/build/RISCV/gem5.opt -r -d /home/xfalc/arq/TP4_EX4/m5out/q5/A15_nolimit_20260210/L1_8kB/dijkstra /home/xfalc/arq/TP4_EX4/gem5/se_A15_q5.py --l1 8kB --maxinsts 0 --progress 10 --cmd /home/xfalc/arq/TP4_EX4/bench/bin/dijkstra_small --options /home/xfalc/arq/TP4_EX4/bench/mibench/network/dijkstra/input.dat

src/sim/simulate.cc:194: info: Entering event queue @ 0.  Starting simulation...
src/sim/syscall_emul.cc:85: warn: ignoring syscall set_robust_list(...)
      (further warnings will be suppressed)
src/sim/syscall_emul.hh:1014: warn: readlink() called on '/proc/self/exe' may yield unexpected results in various settings.
      Returning '/home/xfalc/arq/TP4_EX4/bench/bin/dijkstra_small'
src/sim/mem_state.cc:443: info: Increasing stack size by one page.
src/sim/syscall_emul.cc:74: warn: ignoring syscall mprotect(...)
Exiting @ tick 15358692000 because exiting with last active thread context
[done] 23:06:27 rc=0 elapsed=107s outdir=/home/xfalc/arq/TP4_EX4/m5out/q5/A15_nolimit_20260210/L1_8kB/dijkstra
[run ] 23:06:27 outdir=/home/xfalc/arq/TP4_EX4/m5out/q5/A15_nolimit_20260210/L1_8kB/blowfish_enc
Global frequency set at 1000000000000 ticks per second
src/mem/dram_interface.cc:690: warn: DRAM device capacity (8192 Mbytes) does not match the address range assigned (2048 Mbytes)
src/base/statistics.hh:279: warn: One of the stats is a legacy stat. Legacy stat is a stat that does not belong to any statistics::Group. Legacy stat is deprecated.
system.remote_gdb: Listening for connections on port 7000
Redirecting stdout and stderr to /home/xfalc/arq/TP4_EX4/m5out/q5/A15_nolimit_20260210/L1_8kB/blowfish_enc/simout
gem5 Simulator System.  https://www.gem5.org
gem5 is copyrighted software; use the --copyright option for details.

gem5 version 23.0.0.1
gem5 compiled Jan 26 2026 00:01:36
gem5 started Feb 10 2026 23:06:27
gem5 executing on notebook, pid 112400
command line: /opt/gem5/build/RISCV/gem5.opt -r -d /home/xfalc/arq/TP4_EX4/m5out/q5/A15_nolimit_20260210/L1_8kB/blowfish_enc /home/xfalc/arq/TP4_EX4/gem5/se_A15_q5.py --l1 8kB --maxinsts 0 --progress 10 --cmd /home/xfalc/arq/TP4_EX4/bench/bin/bf --options e /home/xfalc/arq/TP4_EX4/bench/mibench/security/blowfish/input_small.asc /home/xfalc/arq/TP4_EX4/m5out/q5/A15_nolimit_20260210/L1_8kB/blowfish_enc/output_small.enc 1234567890abcdeffedcba0987654321

src/sim/simulate.cc:194: info: Entering event queue @ 0.  Starting simulation...
src/sim/syscall_emul.cc:85: warn: ignoring syscall set_robust_list(...)
      (further warnings will be suppressed)
src/sim/syscall_emul.hh:1014: warn: readlink() called on '/proc/self/exe' may yield unexpected results in various settings.
      Returning '/home/xfalc/arq/TP4_EX4/bench/bin/bf'
src/sim/mem_state.cc:443: info: Increasing stack size by one page.
src/sim/syscall_emul.cc:74: warn: ignoring syscall mprotect(...)
src/sim/mem_state.cc:443: info: Increasing stack size by one page.
Exiting @ tick 14143654800 because exiting with last active thread context
[done] 23:08:30 rc=0 elapsed=123s outdir=/home/xfalc/arq/TP4_EX4/m5out/q5/A15_nolimit_20260210/L1_8kB/blowfish_enc
[run ] 23:08:30 outdir=/home/xfalc/arq/TP4_EX4/m5out/q5/A15_nolimit_20260210/L1_8kB/blowfish_dec
Global frequency set at 1000000000000 ticks per second
src/mem/dram_interface.cc:690: warn: DRAM device capacity (8192 Mbytes) does not match the address range assigned (2048 Mbytes)
src/base/statistics.hh:279: warn: One of the stats is a legacy stat. Legacy stat is a stat that does not belong to any statistics::Group. Legacy stat is deprecated.
system.remote_gdb: Listening for connections on port 7000
Redirecting stdout and stderr to /home/xfalc/arq/TP4_EX4/m5out/q5/A15_nolimit_20260210/L1_8kB/blowfish_dec/simout
gem5 Simulator System.  https://www.gem5.org
gem5 is copyrighted software; use the --copyright option for details.

gem5 version 23.0.0.1
gem5 compiled Jan 26 2026 00:01:36
gem5 started Feb 10 2026 23:08:30
gem5 executing on notebook, pid 112686
command line: /opt/gem5/build/RISCV/gem5.opt -r -d /home/xfalc/arq/TP4_EX4/m5out/q5/A15_nolimit_20260210/L1_8kB/blowfish_dec /home/xfalc/arq/TP4_EX4/gem5/se_A15_q5.py --l1 8kB --maxinsts 0 --progress 10 --cmd /home/xfalc/arq/TP4_EX4/bench/bin/bf --options d /home/xfalc/arq/TP4_EX4/m5out/q5/A15_nolimit_20260210/L1_8kB/blowfish_enc/output_small.enc /home/xfalc/arq/TP4_EX4/m5out/q5/A15_nolimit_20260210/L1_8kB/blowfish_dec/output_small.asc 1234567890abcdeffedcba0987654321

src/sim/simulate.cc:194: info: Entering event queue @ 0.  Starting simulation...
src/sim/syscall_emul.cc:85: warn: ignoring syscall set_robust_list(...)
      (further warnings will be suppressed)
src/sim/syscall_emul.hh:1014: warn: readlink() called on '/proc/self/exe' may yield unexpected results in various settings.
      Returning '/home/xfalc/arq/TP4_EX4/bench/bin/bf'
src/sim/mem_state.cc:443: info: Increasing stack size by one page.
src/sim/syscall_emul.cc:74: warn: ignoring syscall mprotect(...)
src/sim/mem_state.cc:443: info: Increasing stack size by one page.
Exiting @ tick 13999769600 because exiting with last active thread context
[done] 23:10:30 rc=0 elapsed=120s outdir=/home/xfalc/arq/TP4_EX4/m5out/q5/A15_nolimit_20260210/L1_8kB/blowfish_dec
\n=== L1=16kB ===
[run ] 23:10:30 outdir=/home/xfalc/arq/TP4_EX4/m5out/q5/A15_nolimit_20260210/L1_16kB/dijkstra
Global frequency set at 1000000000000 ticks per second
src/mem/dram_interface.cc:690: warn: DRAM device capacity (8192 Mbytes) does not match the address range assigned (2048 Mbytes)
src/base/statistics.hh:279: warn: One of the stats is a legacy stat. Legacy stat is a stat that does not belong to any statistics::Group. Legacy stat is deprecated.
system.remote_gdb: Listening for connections on port 7000
Redirecting stdout and stderr to /home/xfalc/arq/TP4_EX4/m5out/q5/A15_nolimit_20260210/L1_16kB/dijkstra/simout
gem5 Simulator System.  https://www.gem5.org
gem5 is copyrighted software; use the --copyright option for details.

gem5 version 23.0.0.1
gem5 compiled Jan 26 2026 00:01:36
gem5 started Feb 10 2026 23:10:30
gem5 executing on notebook, pid 113030
command line: /opt/gem5/build/RISCV/gem5.opt -r -d /home/xfalc/arq/TP4_EX4/m5out/q5/A15_nolimit_20260210/L1_16kB/dijkstra /home/xfalc/arq/TP4_EX4/gem5/se_A15_q5.py --l1 16kB --maxinsts 0 --progress 10 --cmd /home/xfalc/arq/TP4_EX4/bench/bin/dijkstra_small --options /home/xfalc/arq/TP4_EX4/bench/mibench/network/dijkstra/input.dat

src/sim/simulate.cc:194: info: Entering event queue @ 0.  Starting simulation...
src/sim/syscall_emul.cc:85: warn: ignoring syscall set_robust_list(...)
      (further warnings will be suppressed)
src/sim/syscall_emul.hh:1014: warn: readlink() called on '/proc/self/exe' may yield unexpected results in various settings.
      Returning '/home/xfalc/arq/TP4_EX4/bench/bin/dijkstra_small'
src/sim/mem_state.cc:443: info: Increasing stack size by one page.
src/sim/syscall_emul.cc:74: warn: ignoring syscall mprotect(...)
Exiting @ tick 13722723600 because exiting with last active thread context
[done] 23:12:11 rc=0 elapsed=101s outdir=/home/xfalc/arq/TP4_EX4/m5out/q5/A15_nolimit_20260210/L1_16kB/dijkstra
[run ] 23:12:11 outdir=/home/xfalc/arq/TP4_EX4/m5out/q5/A15_nolimit_20260210/L1_16kB/blowfish_enc
Global frequency set at 1000000000000 ticks per second
src/mem/dram_interface.cc:690: warn: DRAM device capacity (8192 Mbytes) does not match the address range assigned (2048 Mbytes)
src/base/statistics.hh:279: warn: One of the stats is a legacy stat. Legacy stat is a stat that does not belong to any statistics::Group. Legacy stat is deprecated.
system.remote_gdb: Listening for connections on port 7000
Redirecting stdout and stderr to /home/xfalc/arq/TP4_EX4/m5out/q5/A15_nolimit_20260210/L1_16kB/blowfish_enc/simout
gem5 Simulator System.  https://www.gem5.org
gem5 is copyrighted software; use the --copyright option for details.

gem5 version 23.0.0.1
gem5 compiled Jan 26 2026 00:01:36
gem5 started Feb 10 2026 23:12:11
gem5 executing on notebook, pid 113267
command line: /opt/gem5/build/RISCV/gem5.opt -r -d /home/xfalc/arq/TP4_EX4/m5out/q5/A15_nolimit_20260210/L1_16kB/blowfish_enc /home/xfalc/arq/TP4_EX4/gem5/se_A15_q5.py --l1 16kB --maxinsts 0 --progress 10 --cmd /home/xfalc/arq/TP4_EX4/bench/bin/bf --options e /home/xfalc/arq/TP4_EX4/bench/mibench/security/blowfish/input_small.asc /home/xfalc/arq/TP4_EX4/m5out/q5/A15_nolimit_20260210/L1_16kB/blowfish_enc/output_small.enc 1234567890abcdeffedcba0987654321

src/sim/simulate.cc:194: info: Entering event queue @ 0.  Starting simulation...
src/sim/syscall_emul.cc:85: warn: ignoring syscall set_robust_list(...)
      (further warnings will be suppressed)
src/sim/syscall_emul.hh:1014: warn: readlink() called on '/proc/self/exe' may yield unexpected results in various settings.
      Returning '/home/xfalc/arq/TP4_EX4/bench/bin/bf'
src/sim/mem_state.cc:443: info: Increasing stack size by one page.
src/sim/syscall_emul.cc:74: warn: ignoring syscall mprotect(...)
src/sim/mem_state.cc:443: info: Increasing stack size by one page.
Exiting @ tick 13734989600 because exiting with last active thread context
[done] 23:14:13 rc=0 elapsed=122s outdir=/home/xfalc/arq/TP4_EX4/m5out/q5/A15_nolimit_20260210/L1_16kB/blowfish_enc
[run ] 23:14:13 outdir=/home/xfalc/arq/TP4_EX4/m5out/q5/A15_nolimit_20260210/L1_16kB/blowfish_dec
Global frequency set at 1000000000000 ticks per second
src/mem/dram_interface.cc:690: warn: DRAM device capacity (8192 Mbytes) does not match the address range assigned (2048 Mbytes)
src/base/statistics.hh:279: warn: One of the stats is a legacy stat. Legacy stat is a stat that does not belong to any statistics::Group. Legacy stat is deprecated.
system.remote_gdb: Listening for connections on port 7000
Redirecting stdout and stderr to /home/xfalc/arq/TP4_EX4/m5out/q5/A15_nolimit_20260210/L1_16kB/blowfish_dec/simout
gem5 Simulator System.  https://www.gem5.org
gem5 is copyrighted software; use the --copyright option for details.

gem5 version 23.0.0.1
gem5 compiled Jan 26 2026 00:01:36
gem5 started Feb 10 2026 23:14:13
gem5 executing on notebook, pid 113547
command line: /opt/gem5/build/RISCV/gem5.opt -r -d /home/xfalc/arq/TP4_EX4/m5out/q5/A15_nolimit_20260210/L1_16kB/blowfish_dec /home/xfalc/arq/TP4_EX4/gem5/se_A15_q5.py --l1 16kB --maxinsts 0 --progress 10 --cmd /home/xfalc/arq/TP4_EX4/bench/bin/bf --options d /home/xfalc/arq/TP4_EX4/m5out/q5/A15_nolimit_20260210/L1_16kB/blowfish_enc/output_small.enc /home/xfalc/arq/TP4_EX4/m5out/q5/A15_nolimit_20260210/L1_16kB/blowfish_dec/output_small.asc 1234567890abcdeffedcba0987654321

src/sim/simulate.cc:194: info: Entering event queue @ 0.  Starting simulation...
src/sim/syscall_emul.cc:85: warn: ignoring syscall set_robust_list(...)
      (further warnings will be suppressed)
src/sim/syscall_emul.hh:1014: warn: readlink() called on '/proc/self/exe' may yield unexpected results in various settings.
      Returning '/home/xfalc/arq/TP4_EX4/bench/bin/bf'
src/sim/mem_state.cc:443: info: Increasing stack size by one page.
src/sim/syscall_emul.cc:74: warn: ignoring syscall mprotect(...)
src/sim/mem_state.cc:443: info: Increasing stack size by one page.
Exiting @ tick 13737716000 because exiting with last active thread context
[done] 23:16:11 rc=0 elapsed=118s outdir=/home/xfalc/arq/TP4_EX4/m5out/q5/A15_nolimit_20260210/L1_16kB/blowfish_dec
\n=== L1=32kB ===
[run ] 23:16:11 outdir=/home/xfalc/arq/TP4_EX4/m5out/q5/A15_nolimit_20260210/L1_32kB/dijkstra
Global frequency set at 1000000000000 ticks per second
src/mem/dram_interface.cc:690: warn: DRAM device capacity (8192 Mbytes) does not match the address range assigned (2048 Mbytes)
src/base/statistics.hh:279: warn: One of the stats is a legacy stat. Legacy stat is a stat that does not belong to any statistics::Group. Legacy stat is deprecated.
system.remote_gdb: Listening for connections on port 7000
Redirecting stdout and stderr to /home/xfalc/arq/TP4_EX4/m5out/q5/A15_nolimit_20260210/L1_32kB/dijkstra/simout
gem5 Simulator System.  https://www.gem5.org
gem5 is copyrighted software; use the --copyright option for details.

gem5 version 23.0.0.1
gem5 compiled Jan 26 2026 00:01:36
gem5 started Feb 10 2026 23:16:12
gem5 executing on notebook, pid 113820
command line: /opt/gem5/build/RISCV/gem5.opt -r -d /home/xfalc/arq/TP4_EX4/m5out/q5/A15_nolimit_20260210/L1_32kB/dijkstra /home/xfalc/arq/TP4_EX4/gem5/se_A15_q5.py --l1 32kB --maxinsts 0 --progress 10 --cmd /home/xfalc/arq/TP4_EX4/bench/bin/dijkstra_small --options /home/xfalc/arq/TP4_EX4/bench/mibench/network/dijkstra/input.dat

src/sim/simulate.cc:194: info: Entering event queue @ 0.  Starting simulation...
src/sim/syscall_emul.cc:85: warn: ignoring syscall set_robust_list(...)
      (further warnings will be suppressed)
src/sim/syscall_emul.hh:1014: warn: readlink() called on '/proc/self/exe' may yield unexpected results in various settings.
      Returning '/home/xfalc/arq/TP4_EX4/bench/bin/dijkstra_small'
src/sim/mem_state.cc:443: info: Increasing stack size by one page.
src/sim/syscall_emul.cc:74: warn: ignoring syscall mprotect(...)
Exiting @ tick 11382484800 because exiting with last active thread context
[done] 23:17:45 rc=0 elapsed=94s outdir=/home/xfalc/arq/TP4_EX4/m5out/q5/A15_nolimit_20260210/L1_32kB/dijkstra
[run ] 23:17:45 outdir=/home/xfalc/arq/TP4_EX4/m5out/q5/A15_nolimit_20260210/L1_32kB/blowfish_enc
Global frequency set at 1000000000000 ticks per second
src/mem/dram_interface.cc:690: warn: DRAM device capacity (8192 Mbytes) does not match the address range assigned (2048 Mbytes)
src/base/statistics.hh:279: warn: One of the stats is a legacy stat. Legacy stat is a stat that does not belong to any statistics::Group. Legacy stat is deprecated.
system.remote_gdb: Listening for connections on port 7000
Redirecting stdout and stderr to /home/xfalc/arq/TP4_EX4/m5out/q5/A15_nolimit_20260210/L1_32kB/blowfish_enc/simout
gem5 Simulator System.  https://www.gem5.org
gem5 is copyrighted software; use the --copyright option for details.

gem5 version 23.0.0.1
gem5 compiled Jan 26 2026 00:01:36
gem5 started Feb 10 2026 23:17:45
gem5 executing on notebook, pid 114141
command line: /opt/gem5/build/RISCV/gem5.opt -r -d /home/xfalc/arq/TP4_EX4/m5out/q5/A15_nolimit_20260210/L1_32kB/blowfish_enc /home/xfalc/arq/TP4_EX4/gem5/se_A15_q5.py --l1 32kB --maxinsts 0 --progress 10 --cmd /home/xfalc/arq/TP4_EX4/bench/bin/bf --options e /home/xfalc/arq/TP4_EX4/bench/mibench/security/blowfish/input_small.asc /home/xfalc/arq/TP4_EX4/m5out/q5/A15_nolimit_20260210/L1_32kB/blowfish_enc/output_small.enc 1234567890abcdeffedcba0987654321

src/sim/simulate.cc:194: info: Entering event queue @ 0.  Starting simulation...
src/sim/syscall_emul.cc:85: warn: ignoring syscall set_robust_list(...)
      (further warnings will be suppressed)
src/sim/syscall_emul.hh:1014: warn: readlink() called on '/proc/self/exe' may yield unexpected results in various settings.
      Returning '/home/xfalc/arq/TP4_EX4/bench/bin/bf'
src/sim/mem_state.cc:443: info: Increasing stack size by one page.
src/sim/syscall_emul.cc:74: warn: ignoring syscall mprotect(...)
src/sim/mem_state.cc:443: info: Increasing stack size by one page.
Exiting @ tick 12339046000 because exiting with last active thread context
[done] 23:19:40 rc=0 elapsed=115s outdir=/home/xfalc/arq/TP4_EX4/m5out/q5/A15_nolimit_20260210/L1_32kB/blowfish_enc
[run ] 23:19:40 outdir=/home/xfalc/arq/TP4_EX4/m5out/q5/A15_nolimit_20260210/L1_32kB/blowfish_dec
Global frequency set at 1000000000000 ticks per second
src/mem/dram_interface.cc:690: warn: DRAM device capacity (8192 Mbytes) does not match the address range assigned (2048 Mbytes)
src/base/statistics.hh:279: warn: One of the stats is a legacy stat. Legacy stat is a stat that does not belong to any statistics::Group. Legacy stat is deprecated.
system.remote_gdb: Listening for connections on port 7000
Redirecting stdout and stderr to /home/xfalc/arq/TP4_EX4/m5out/q5/A15_nolimit_20260210/L1_32kB/blowfish_dec/simout
gem5 Simulator System.  https://www.gem5.org
gem5 is copyrighted software; use the --copyright option for details.

gem5 version 23.0.0.1
gem5 compiled Jan 26 2026 00:01:36
gem5 started Feb 10 2026 23:19:40
gem5 executing on notebook, pid 114402
command line: /opt/gem5/build/RISCV/gem5.opt -r -d /home/xfalc/arq/TP4_EX4/m5out/q5/A15_nolimit_20260210/L1_32kB/blowfish_dec /home/xfalc/arq/TP4_EX4/gem5/se_A15_q5.py --l1 32kB --maxinsts 0 --progress 10 --cmd /home/xfalc/arq/TP4_EX4/bench/bin/bf --options d /home/xfalc/arq/TP4_EX4/m5out/q5/A15_nolimit_20260210/L1_32kB/blowfish_enc/output_small.enc /home/xfalc/arq/TP4_EX4/m5out/q5/A15_nolimit_20260210/L1_32kB/blowfish_dec/output_small.asc 1234567890abcdeffedcba0987654321

src/sim/simulate.cc:194: info: Entering event queue @ 0.  Starting simulation...
src/sim/syscall_emul.cc:85: warn: ignoring syscall set_robust_list(...)
      (further warnings will be suppressed)
src/sim/syscall_emul.hh:1014: warn: readlink() called on '/proc/self/exe' may yield unexpected results in various settings.
      Returning '/home/xfalc/arq/TP4_EX4/bench/bin/bf'
src/sim/mem_state.cc:443: info: Increasing stack size by one page.
src/sim/syscall_emul.cc:74: warn: ignoring syscall mprotect(...)
src/sim/mem_state.cc:443: info: Increasing stack size by one page.
Exiting @ tick 12321905200 because exiting with last active thread context
[done] 23:21:35 rc=0 elapsed=115s outdir=/home/xfalc/arq/TP4_EX4/m5out/q5/A15_nolimit_20260210/L1_32kB/blowfish_dec
\nDone. Results in: /home/xfalc/arq/TP4_EX4/m5out/q5/A15_nolimit_20260210
[pipeline] sweep done: 2026-02-10T23:21:35+01:00
[pipeline] collecting A15 results...
Wrote CSV: /home/xfalc/arq/TP4_EX4/analysis/q5_a15_results.csv
Wrote figures under: /home/xfalc/arq/TP4_EX4/tex/figs/q5
Wrote LaTeX table: /home/xfalc/arq/TP4_EX4/tex/tables/q5_a15_summary.tex
[pipeline] computing Q11 energy...
Wrote figures under: /home/xfalc/arq/TP4_EX4/tex/figs/q11
Wrote LaTeX table: /home/xfalc/arq/TP4_EX4/tex/tables/q11_energy_summary.tex
[pipeline] building q11 pdf...
Rc files read:
  /etc/LatexMk
Latexmk: This is Latexmk, John Collins, 31 Jan. 2024. Version 4.83.
No existing .aux file, so I'll make a simple one, and require run of *latex.
Force everything to be remade.
Latexmk: applying rule 'pdflatex'...
Rule 'pdflatex':  Reasons for rerun
Category 'other':
  Rerun of 'pdflatex' forced or previously required:
    Reason or flag: 'go_mode'

------------
Run number 1 of rule 'pdflatex'
------------
------------
Running 'pdflatex  -interaction=nonstopmode -halt-on-error -recorder -output-directory="out"  "q11.tex"'
------------
This is pdfTeX, Version 3.141592653-2.6-1.40.25 (TeX Live 2023/Debian) (preloaded format=pdflatex)
 restricted \write18 enabled.
entering extended mode
(./q11.tex
LaTeX2e <2023-11-01> patch level 1
L3 programming layer <2024-01-22>
(/usr/share/texlive/texmf-dist/tex/latex/base/article.cls
Document Class: article 2023/05/17 v1.4n Standard LaTeX document class
(/usr/share/texlive/texmf-dist/tex/latex/base/size11.clo))
(/usr/share/texlive/texmf-dist/tex/latex/base/inputenc.sty)
(/usr/share/texlive/texmf-dist/tex/latex/base/fontenc.sty)
(/usr/share/texmf/tex/latex/lm/lmodern.sty)
(/usr/share/texlive/texmf-dist/tex/latex/geometry/geometry.sty
(/usr/share/texlive/texmf-dist/tex/latex/graphics/keyval.sty)
(/usr/share/texlive/texmf-dist/tex/generic/iftex/ifvtex.sty
(/usr/share/texlive/texmf-dist/tex/generic/iftex/iftex.sty)))
(/usr/share/texlive/texmf-dist/tex/latex/graphics/graphicx.sty
(/usr/share/texlive/texmf-dist/tex/latex/graphics/graphics.sty
(/usr/share/texlive/texmf-dist/tex/latex/graphics/trig.sty)
(/usr/share/texlive/texmf-dist/tex/latex/graphics-cfg/graphics.cfg)
(/usr/share/texlive/texmf-dist/tex/latex/graphics-def/pdftex.def)))
(/usr/share/texlive/texmf-dist/tex/latex/booktabs/booktabs.sty)
(/usr/share/texlive/texmf-dist/tex/latex/siunitx/siunitx.sty
(/usr/share/texlive/texmf-dist/tex/latex/amsmath/amstext.sty
(/usr/share/texlive/texmf-dist/tex/latex/amsmath/amsgen.sty))
(/usr/share/texlive/texmf-dist/tex/latex/tools/array.sty))
(/usr/share/texlive/texmf-dist/tex/latex/graphics/color.sty
(/usr/share/texlive/texmf-dist/tex/latex/graphics-cfg/color.cfg)
(/usr/share/texlive/texmf-dist/tex/latex/graphics/mathcolor.ltx))
(/usr/share/texmf/tex/latex/lm/t1lmr.fd)
(/usr/share/texlive/texmf-dist/tex/latex/l3backend/l3backend-pdftex.def)
(out/q11.aux)
*geometry* driver: auto-detecting
*geometry* detected driver: pdftex
(/usr/share/texlive/texmf-dist/tex/context/base/mkii/supp-pdf.mkii
[Loading MPS to PDF converter (version 2006.09.02).]
) (/usr/share/texlive/texmf-dist/tex/latex/epstopdf-pkg/epstopdf-base.sty
(/usr/share/texlive/texmf-dist/tex/latex/latexconfig/epstopdf-sys.cfg))
(/usr/share/texmf/tex/latex/lm/ot1lmr.fd)
(/usr/share/texmf/tex/latex/lm/omllmm.fd)
(/usr/share/texmf/tex/latex/lm/omslmsy.fd)
(/usr/share/texmf/tex/latex/lm/omxlmex.fd)
Overfull \hbox (22.89745pt too wide) in paragraph at lines 26--28
\T1/lmr/m/n/10.95 D'après l'énoncé, la con-som-ma-tion est de $\OT1/lmr/m/n/10.
95 0[]10$$[]\OML/lmm/m/it/10.95 =[]$ \T1/lmr/m/n/10.95 pour le Cor-tex A7 ($\OT
1/lmr/m/n/10.95 1[]0$$[]$\T1/lmr/m/n/10.95 ) et de $\OT1/lmr/m/n/10.95 0[]20$$[
]\OML/lmm/m/it/10.95 =[]$
(/usr/share/texmf/tex/latex/lm/ts1lmr.fd) (./tables/q11_energy_summary.tex)

LaTeX Warning: `h' float specifier changed to `ht'.


LaTeX Warning: `h' float specifier changed to `ht'.

[1{/var/lib/texmf/fonts/map/pdftex/updmap/pdftex.map}{/usr/share/texmf/fonts/en
c/dvips/lm/lm-ec.enc}{/usr/share/texmf/fonts/enc/dvips/lm/lm-rm.enc}{/usr/share
/texmf/fonts/enc/dvips/lm/lm-mathit.enc}{/usr/share/texmf/fonts/enc/dvips/lm/lm
-ts1.enc}] [2 <./figs/q11/q11_energy_dijkstra.png> <./figs/q11/q11_energy_blowf
ish_total.png>] (out/q11.aux) )
(see the transcript file for additional information)</usr/share/texmf/fonts/typ
e1/public/lm/lmbx12.pfb></usr/share/texmf/fonts/type1/public/lm/lmmi10.pfb></us
r/share/texmf/fonts/type1/public/lm/lmmi8.pfb></usr/share/texmf/fonts/type1/pub
lic/lm/lmr10.pfb></usr/share/texmf/fonts/type1/public/lm/lmr17.pfb></usr/share/
texmf/fonts/type1/public/lm/lmr8.pfb></usr/share/texmf/fonts/type1/public/lm/lm
ri10.pfb>
Output written on out/q11.pdf (2 pages, 273828 bytes).
Transcript written on out/q11.log.
Latexmk: Getting log file 'out/q11.log'
Latexmk: Examining 'out/q11.fls'
Latexmk: Examining 'out/q11.log'
Latexmk: Log file says output to 'out/q11.pdf'
Latexmk: applying rule 'pdflatex'...
Rule 'pdflatex':  Reasons for rerun
Changed files or newly in use/created:
  out/q11.aux

------------
Run number 2 of rule 'pdflatex'
------------
------------
Running 'pdflatex  -interaction=nonstopmode -halt-on-error -recorder -output-directory="out"  "q11.tex"'
------------
This is pdfTeX, Version 3.141592653-2.6-1.40.25 (TeX Live 2023/Debian) (preloaded format=pdflatex)
 restricted \write18 enabled.
entering extended mode
(./q11.tex
LaTeX2e <2023-11-01> patch level 1
L3 programming layer <2024-01-22>
(/usr/share/texlive/texmf-dist/tex/latex/base/article.cls
Document Class: article 2023/05/17 v1.4n Standard LaTeX document class
(/usr/share/texlive/texmf-dist/tex/latex/base/size11.clo))
(/usr/share/texlive/texmf-dist/tex/latex/base/inputenc.sty)
(/usr/share/texlive/texmf-dist/tex/latex/base/fontenc.sty)
(/usr/share/texmf/tex/latex/lm/lmodern.sty)
(/usr/share/texlive/texmf-dist/tex/latex/geometry/geometry.sty
(/usr/share/texlive/texmf-dist/tex/latex/graphics/keyval.sty)
(/usr/share/texlive/texmf-dist/tex/generic/iftex/ifvtex.sty
(/usr/share/texlive/texmf-dist/tex/generic/iftex/iftex.sty)))
(/usr/share/texlive/texmf-dist/tex/latex/graphics/graphicx.sty
(/usr/share/texlive/texmf-dist/tex/latex/graphics/graphics.sty
(/usr/share/texlive/texmf-dist/tex/latex/graphics/trig.sty)
(/usr/share/texlive/texmf-dist/tex/latex/graphics-cfg/graphics.cfg)
(/usr/share/texlive/texmf-dist/tex/latex/graphics-def/pdftex.def)))
(/usr/share/texlive/texmf-dist/tex/latex/booktabs/booktabs.sty)
(/usr/share/texlive/texmf-dist/tex/latex/siunitx/siunitx.sty
(/usr/share/texlive/texmf-dist/tex/latex/amsmath/amstext.sty
(/usr/share/texlive/texmf-dist/tex/latex/amsmath/amsgen.sty))
(/usr/share/texlive/texmf-dist/tex/latex/tools/array.sty))
(/usr/share/texlive/texmf-dist/tex/latex/graphics/color.sty
(/usr/share/texlive/texmf-dist/tex/latex/graphics-cfg/color.cfg)
(/usr/share/texlive/texmf-dist/tex/latex/graphics/mathcolor.ltx))
(/usr/share/texmf/tex/latex/lm/t1lmr.fd)
(/usr/share/texlive/texmf-dist/tex/latex/l3backend/l3backend-pdftex.def)
(out/q11.aux)
*geometry* driver: auto-detecting
*geometry* detected driver: pdftex
(/usr/share/texlive/texmf-dist/tex/context/base/mkii/supp-pdf.mkii
[Loading MPS to PDF converter (version 2006.09.02).]
) (/usr/share/texlive/texmf-dist/tex/latex/epstopdf-pkg/epstopdf-base.sty
(/usr/share/texlive/texmf-dist/tex/latex/latexconfig/epstopdf-sys.cfg))
(/usr/share/texmf/tex/latex/lm/ot1lmr.fd)
(/usr/share/texmf/tex/latex/lm/omllmm.fd)
(/usr/share/texmf/tex/latex/lm/omslmsy.fd)
(/usr/share/texmf/tex/latex/lm/omxlmex.fd)
Overfull \hbox (22.89745pt too wide) in paragraph at lines 26--28
\T1/lmr/m/n/10.95 D'après l'énoncé, la con-som-ma-tion est de $\OT1/lmr/m/n/10.
95 0[]10$$[]\OML/lmm/m/it/10.95 =[]$ \T1/lmr/m/n/10.95 pour le Cor-tex A7 ($\OT
1/lmr/m/n/10.95 1[]0$$[]$\T1/lmr/m/n/10.95 ) et de $\OT1/lmr/m/n/10.95 0[]20$$[
]\OML/lmm/m/it/10.95 =[]$
(/usr/share/texmf/tex/latex/lm/ts1lmr.fd) (./tables/q11_energy_summary.tex)

LaTeX Warning: `h' float specifier changed to `ht'.


LaTeX Warning: `h' float specifier changed to `ht'.

[1{/var/lib/texmf/fonts/map/pdftex/updmap/pdftex.map}{/usr/share/texmf/fonts/en
c/dvips/lm/lm-ec.enc}{/usr/share/texmf/fonts/enc/dvips/lm/lm-rm.enc}{/usr/share
/texmf/fonts/enc/dvips/lm/lm-mathit.enc}{/usr/share/texmf/fonts/enc/dvips/lm/lm
-ts1.enc}] [2 <./figs/q11/q11_energy_dijkstra.png> <./figs/q11/q11_energy_blowf
ish_total.png>] (out/q11.aux) )
(see the transcript file for additional information)</usr/share/texmf/fonts/typ
e1/public/lm/lmbx12.pfb></usr/share/texmf/fonts/type1/public/lm/lmmi10.pfb></us
r/share/texmf/fonts/type1/public/lm/lmmi8.pfb></usr/share/texmf/fonts/type1/pub
lic/lm/lmr10.pfb></usr/share/texmf/fonts/type1/public/lm/lmr17.pfb></usr/share/
texmf/fonts/type1/public/lm/lmr8.pfb></usr/share/texmf/fonts/type1/public/lm/lm
ri10.pfb>
Output written on out/q11.pdf (2 pages, 273828 bytes).
Transcript written on out/q11.log.
Latexmk: Getting log file 'out/q11.log'
Latexmk: Examining 'out/q11.fls'
Latexmk: Examining 'out/q11.log'
Latexmk: Log file says output to 'out/q11.pdf'
Latexmk: All targets (out/q11.pdf) are up-to-date

[pipeline] finished: 2026-02-10T23:21:40+01:00
