gem5 Simulator System.  https://www.gem5.org
gem5 is copyrighted software; use the --copyright option for details.

gem5 version 23.0.0.1
gem5 compiled Jan 26 2026 00:01:36
gem5 started Feb 10 2026 19:55:42
gem5 executing on notebook, pid 75131
command line: /opt/gem5/build/RISCV/gem5.opt -r -d m5out/tmp_test gem5/se_A7_q4.py --l1 1kB --cmd bench/bin/dijkstra_small --options bench/mibench/network/dijkstra/input.dat

Global frequency set at 1000000000000 ticks per second
src/mem/dram_interface.cc:690: warn: DRAM device capacity (8192 Mbytes) does not match the address range assigned (2048 Mbytes)
src/base/statistics.hh:279: warn: One of the stats is a legacy stat. Legacy stat is a stat that does not belong to any statistics::Group. Legacy stat is deprecated.
system.remote_gdb: Listening for connections on port 7000
src/sim/simulate.cc:194: info: Entering event queue @ 0.  Starting simulation...
src/sim/syscall_emul.cc:85: warn: ignoring syscall set_robust_list(...)
      (further warnings will be suppressed)
src/sim/syscall_emul.hh:1014: warn: readlink() called on '/proc/self/exe' may yield unexpected results in various settings.
      Returning '/home/xfalc/arq/TP4_EX4/bench/bin/dijkstra_small'
src/sim/mem_state.cc:443: info: Increasing stack size by one page.
src/sim/syscall_emul.cc:74: warn: ignoring syscall mprotect(...)
Shortest path is 1 in cost. Path is:  0 41 45 51 50
Shortest path is 0 in cost. Path is:  1 58 57 20 40 17 65 73 36 46 10 38 41 45 51
Shortest path is 1 in cost. Path is:  2 71 47 79 23 77 1 58 57 20 40 17 52
Shortest path is 2 in cost. Path is:  3 53
Shortest path is 1 in cost. Path is:  4 85 83 58 33 13 19 79 23 77 1 54
Shortest path is 3 in cost. Path is:  5 26 23 77 1 58 99 3 21 70 55
Shortest path is 3 in cost. Path is:  6 42 80 77 1 58 99 3 21 70 55 56
Shortest path is 0 in cost. Path is:  7 17 65 73 36 46 10 58 57
Shortest path is 0 in cost. Path is:  8 37 63 72 46 10 58
Shortest path is 1 in cost. Path is:  9 33 13 19 79 23 77 1 59
Shortest path is 0 in cost. Path is:  10 60
Shortest path is 5 in cost. Path is:  11 22 20 40 17 65 73 36 46 10 29 61
Shortest path is 0 in cost. Path is:  12 37 63 72 46 10 58 99 3 21 70 62
Shortest path is 0 in cost. Path is:  13 19 79 23 77 1 58 99 3 21 70 55 12 37 63
Shortest path is 1 in cost. Path is:  14 38 41 45 51 68 2 71 47 79 23 77 1 58 33 13 92 64
Shortest path is 1 in cost. Path is:  15 13 92 94 11 22 20 40 17 65
Shortest path is 3 in cost. Path is:  16 41 45 51 68 2 71 47 79 23 77 1 58 33 32 66
Shortest path is 0 in cost. Path is:  17 65 73 36 46 10 58 33 13 19 79 23 91 67
Shortest path is 1 in cost. Path is:  18 15 41 45 51 68
Shortest path is 2 in cost. Path is:  19 69
Exiting @ tick 165243387000 because exiting with last active thread context
